MODEL 1
REMARK VINA RESULT:      -5.3      0.000      0.000
REMARK  7 active torsions:
REMARK  status: ('A' for Active; 'I' for Inactive)
REMARK    1  A    between atoms: C_2  and  C_3 
REMARK    2  A    between atoms: C_3  and  O_6 
REMARK    3  A    between atoms: C_3  and  C_4 
REMARK    4  A    between atoms: C_7  and  O_6 
REMARK    5  A    between atoms: C_9  and  C_10 
REMARK    6  A    between atoms: N_15  and  C_14 
REMARK    7  A    between atoms: N_20  and  C_19 
REMARK       I    between atoms: C_22  and  N_20 
ROOT
ATOM      1  C   LIG d   1      -1.745  79.102 115.692  0.00  0.00     0.161 C 
ATOM      2  C   LIG d   1      -2.286  80.379 115.467  0.00  0.00     0.016 C 
ATOM      3  C   LIG d   1      -2.664  80.850 114.189  0.00  0.00     0.038 C 
ATOM      4  C   LIG d   1      -2.667  80.014 113.062  0.00  0.00     0.028 C 
ATOM      5  C   LIG d   1      -1.654  78.877 113.148  0.00  0.00    -0.047 C 
ATOM      6  C   LIG d   1      -1.844  78.137 114.492  0.00  0.00     0.091 C 
ENDROOT
BRANCH   1   7
ATOM      7  O   LIG d   1      -2.351  78.513 116.860  0.00  0.00    -0.368 OA
BRANCH   7   8
ATOM      8  C   LIG d   1      -3.731  78.095 116.719  0.00  0.00     0.119 C 
BRANCH   8   9
ATOM      9  C   LIG d   1      -4.530  78.748 117.864  0.00  0.00     0.028 C 
ATOM     10  C   LIG d   1      -5.310  79.990 117.401  0.00  0.00     0.006 C 
ENDBRANCH   8   9
BRANCH   8  11
ATOM     11  C   LIG d   1      -3.880  76.586 116.930  0.00  0.00     0.028 C 
ATOM     12  C   LIG d   1      -2.751  75.989 117.785  0.00  0.00     0.006 C 
ENDBRANCH   8  11
ENDBRANCH   7   8
ENDBRANCH   1   7
BRANCH   6  13
ATOM     13  N   LIG d   1      -0.837  77.062 114.694  0.00  0.00    -0.311 N 
ATOM     14  C   LIG d   1      -1.087  75.773 114.473  0.00  0.00     0.210 C 
ATOM     15  C   LIG d   1       0.084  74.828 114.764  0.00  0.00     0.109 C 
ATOM     16  O   LIG d   1      -2.157  75.325 114.033  0.00  0.00    -0.276 OA
ATOM     17  H   LIG d   1       0.067  77.340 115.020  0.00  0.00     0.149 HD
ENDBRANCH   6  13
BRANCH   5  18
ATOM     18  N   LIG d   1      -1.859  78.007 111.975  0.00  0.00     0.381 N 
ATOM     19  H   LIG d   1      -2.609  78.363 111.416  0.00  0.00    -0.090 HD
ATOM     20  H   LIG d   1      -2.112  77.088 112.292  0.00  0.00    -0.090 HD
ATOM     21  H   LIG d   1      -1.024  77.962 111.433  0.00  0.00    -0.090 HD
ENDBRANCH   5  18
BRANCH   3  22
ATOM     22  C   LIG d   1      -3.007  82.182 114.021  0.00  0.00     0.382 C 
ATOM     23  O   LIG d   1      -2.327  82.914 113.262  0.00  0.00    -0.241 OA
ATOM     24  O   LIG d   1      -3.961  82.673 114.653  0.00  0.00    -0.241 OA
ENDBRANCH   3  22
TORSDOF 7
ENDMDL
MODEL 2
REMARK VINA RESULT:      -5.2      3.905      7.048
REMARK  7 active torsions:
REMARK  status: ('A' for Active; 'I' for Inactive)
REMARK    1  A    between atoms: C_2  and  C_3 
REMARK    2  A    between atoms: C_3  and  O_6 
REMARK    3  A    between atoms: C_3  and  C_4 
REMARK    4  A    between atoms: C_7  and  O_6 
REMARK    5  A    between atoms: C_9  and  C_10 
REMARK    6  A    between atoms: N_15  and  C_14 
REMARK    7  A    between atoms: N_20  and  C_19 
REMARK       I    between atoms: C_22  and  N_20 
ROOT
ATOM      1  C   LIG d   1      -5.101  75.944 116.169  0.00  0.00     0.161 C 
ATOM      2  C   LIG d   1      -5.766  74.759 115.813  0.00  0.00     0.016 C 
ATOM      3  C   LIG d   1      -7.089  74.459 116.212  0.00  0.00     0.038 C 
ATOM      4  C   LIG d   1      -7.895  75.399 116.871  0.00  0.00     0.028 C 
ATOM      5  C   LIG d   1      -7.101  76.411 117.689  0.00  0.00    -0.047 C 
ATOM      6  C   LIG d   1      -6.003  77.029 116.793  0.00  0.00     0.091 C 
ENDROOT
BRANCH   1   7
ATOM      7  O   LIG d   1      -4.400  76.473 115.025  0.00  0.00    -0.368 OA
BRANCH   7   8
ATOM      8  C   LIG d   1      -3.002  76.109 114.910  0.00  0.00     0.119 C 
BRANCH   8   9
ATOM      9  C   LIG d   1      -2.463  75.886 116.337  0.00  0.00     0.028 C 
ATOM     10  C   LIG d   1      -1.126  75.127 116.347  0.00  0.00     0.006 C 
ENDBRANCH   8   9
BRANCH   8  11
ATOM     11  C   LIG d   1      -2.172  77.262 114.338  0.00  0.00     0.028 C 
ATOM     12  C   LIG d   1      -2.712  78.643 114.742  0.00  0.00     0.006 C 
ENDBRANCH   8  11
ENDBRANCH   7   8
ENDBRANCH   1   7
BRANCH   6  13
ATOM     13  N   LIG d   1      -5.126  77.969 117.539  0.00  0.00    -0.311 N 
ATOM     14  C   LIG d   1      -5.342  79.282 117.601  0.00  0.00     0.210 C 
ATOM     15  C   LIG d   1      -4.306  80.071 118.406  0.00  0.00     0.109 C 
ATOM     16  O   LIG d   1      -6.313  79.863 117.092  0.00  0.00    -0.276 OA
ATOM     17  H   LIG d   1      -4.332  77.578 118.008  0.00  0.00     0.149 HD
ENDBRANCH   6  13
BRANCH   5  18
ATOM     18  N   LIG d   1      -8.054  77.410 118.209  0.00  0.00     0.381 N 
ATOM     19  H   LIG d   1      -8.974  77.019 118.235  0.00  0.00    -0.090 HD
ATOM     20  H   LIG d   1      -8.065  78.201 117.589  0.00  0.00    -0.090 HD
ATOM     21  H   LIG d   1      -7.781  77.698 119.122  0.00  0.00    -0.090 HD
ENDBRANCH   5  18
BRANCH   3  22
ATOM     22  C   LIG d   1      -7.604  73.192 115.985  0.00  0.00     0.382 C 
ATOM     23  O   LIG d   1      -6.842  72.259 115.634  0.00  0.00    -0.241 OA
ATOM     24  O   LIG d   1      -8.828  72.981 116.085  0.00  0.00    -0.241 OA
ENDBRANCH   3  22
TORSDOF 7
ENDMDL
MODEL 3
REMARK VINA RESULT:      -5.1      4.477      6.176
REMARK  7 active torsions:
REMARK  status: ('A' for Active; 'I' for Inactive)
REMARK    1  A    between atoms: C_2  and  C_3 
REMARK    2  A    between atoms: C_3  and  O_6 
REMARK    3  A    between atoms: C_3  and  C_4 
REMARK    4  A    between atoms: C_7  and  O_6 
REMARK    5  A    between atoms: C_9  and  C_10 
REMARK    6  A    between atoms: N_15  and  C_14 
REMARK    7  A    between atoms: N_20  and  C_19 
REMARK       I    between atoms: C_22  and  N_20 
ROOT
ATOM      1  C   LIG d   1      -6.694  76.308 118.554  0.00  0.00     0.161 C 
ATOM      2  C   LIG d   1      -7.888  77.047 118.509  0.00  0.00     0.016 C 
ATOM      3  C   LIG d   1      -7.944  78.415 118.158  0.00  0.00     0.038 C 
ATOM      4  C   LIG d   1      -6.820  79.104 117.678  0.00  0.00     0.028 C 
ATOM      5  C   LIG d   1      -5.499  78.537 118.187  0.00  0.00    -0.047 C 
ATOM      6  C   LIG d   1      -5.474  77.013 117.926  0.00  0.00     0.091 C 
ENDROOT
BRANCH   1   7
ATOM      7  O   LIG d   1      -6.895  75.017 117.946  0.00  0.00    -0.368 OA
BRANCH   7   8
ATOM      8  C   LIG d   1      -7.269  75.024 116.546  0.00  0.00     0.119 C 
BRANCH   8   9
ATOM      9  C   LIG d   1      -8.588  74.238 116.415  0.00  0.00     0.028 C 
ATOM     10  C   LIG d   1      -8.360  72.720 116.324  0.00  0.00     0.006 C 
ENDBRANCH   8   9
BRANCH   8  11
ATOM     11  C   LIG d   1      -6.253  74.256 115.694  0.00  0.00     0.028 C 
ATOM     12  C   LIG d   1      -5.569  75.141 114.641  0.00  0.00     0.006 C 
ENDBRANCH   8  11
ENDBRANCH   7   8
ENDBRANCH   1   7
BRANCH   6  13
ATOM     13  N   LIG d   1      -4.252  76.366 118.470  0.00  0.00    -0.311 N 
ATOM     14  C   LIG d   1      -3.153  76.150 117.748  0.00  0.00     0.210 C 
ATOM     15  C   LIG d   1      -2.015  75.450 118.497  0.00  0.00     0.109 C 
ATOM     16  O   LIG d   1      -3.003  76.500 116.568  0.00  0.00    -0.276 OA
ATOM     17  H   LIG d   1      -4.276  76.078 119.429  0.00  0.00     0.149 HD
ENDBRANCH   6  13
BRANCH   5  18
ATOM     18  N   LIG d   1      -4.411  79.259 117.501  0.00  0.00     0.381 N 
ATOM     19  H   LIG d   1      -3.606  78.669 117.429  0.00  0.00    -0.090 HD
ATOM     20  H   LIG d   1      -4.162  80.066 118.046  0.00  0.00    -0.090 HD
ATOM     21  H   LIG d   1      -4.708  79.541 116.593  0.00  0.00    -0.090 HD
ENDBRANCH   5  18
BRANCH   3  22
ATOM     22  C   LIG d   1      -9.127  79.120 118.323  0.00  0.00     0.382 C 
ATOM     23  O   LIG d   1     -10.229  78.533 118.198  0.00  0.00    -0.241 OA
ATOM     24  O   LIG d   1      -9.106  80.344 118.553  0.00  0.00    -0.241 OA
ENDBRANCH   3  22
TORSDOF 7
ENDMDL
MODEL 4
REMARK VINA RESULT:      -5.1      1.261      2.005
REMARK  7 active torsions:
REMARK  status: ('A' for Active; 'I' for Inactive)
REMARK    1  A    between atoms: C_2  and  C_3 
REMARK    2  A    between atoms: C_3  and  O_6 
REMARK    3  A    between atoms: C_3  and  C_4 
REMARK    4  A    between atoms: C_7  and  O_6 
REMARK    5  A    between atoms: C_9  and  C_10 
REMARK    6  A    between atoms: N_15  and  C_14 
REMARK    7  A    between atoms: N_20  and  C_19 
REMARK       I    between atoms: C_22  and  N_20 
ROOT
ATOM      1  C   LIG d   1      -1.746  79.006 115.604  0.00  0.00     0.161 C 
ATOM      2  C   LIG d   1      -2.270  80.305 115.494  0.00  0.00     0.016 C 
ATOM      3  C   LIG d   1      -2.653  80.888 114.264  0.00  0.00     0.038 C 
ATOM      4  C   LIG d   1      -2.680  80.151 113.071  0.00  0.00     0.028 C 
ATOM      5  C   LIG d   1      -1.684  78.996 113.050  0.00  0.00    -0.047 C 
ATOM      6  C   LIG d   1      -1.871  78.148 114.328  0.00  0.00     0.091 C 
ENDROOT
BRANCH   1   7
ATOM      7  O   LIG d   1      -2.349  78.330 116.725  0.00  0.00    -0.368 OA
BRANCH   7   8
ATOM      8  C   LIG d   1      -1.525  78.200 117.910  0.00  0.00     0.119 C 
BRANCH   8   9
ATOM      9  C   LIG d   1      -0.060  78.414 117.481  0.00  0.00     0.028 C 
ATOM     10  C   LIG d   1       0.787  77.139 117.626  0.00  0.00     0.006 C 
ENDBRANCH   8   9
BRANCH   8  11
ATOM     11  C   LIG d   1      -1.578  76.776 118.472  0.00  0.00     0.028 C 
ATOM     12  C   LIG d   1      -2.729  75.945 117.882  0.00  0.00     0.006 C 
ENDBRANCH   8  11
ENDBRANCH   7   8
ENDBRANCH   1   7
BRANCH   6  13
ATOM     13  N   LIG d   1      -0.879  77.046 114.428  0.00  0.00    -0.311 N 
ATOM     14  C   LIG d   1      -1.215  75.757 114.448  0.00  0.00     0.210 C 
ATOM     15  C   LIG d   1      -0.038  74.785 114.576  0.00  0.00     0.109 C 
ATOM     16  O   LIG d   1      -2.372  75.326 114.340  0.00  0.00    -0.276 OA
ATOM     17  H   LIG d   1       0.086  77.305 114.489  0.00  0.00     0.149 HD
ENDBRANCH   6  13
BRANCH   5  18
ATOM     18  N   LIG d   1      -1.914  78.232 111.810  0.00  0.00     0.381 N 
ATOM     19  H   LIG d   1      -1.037  77.994 111.390  0.00  0.00    -0.090 HD
ATOM     20  H   LIG d   1      -2.427  78.806 111.164  0.00  0.00    -0.090 HD
ATOM     21  H   LIG d   1      -2.429  77.403 112.011  0.00  0.00    -0.090 HD
ENDBRANCH   5  18
BRANCH   3  22
ATOM     22  C   LIG d   1      -2.978  82.235 114.214  0.00  0.00     0.382 C 
ATOM     23  O   LIG d   1      -2.175  83.055 113.705  0.00  0.00    -0.241 OA
ATOM     24  O   LIG d   1      -4.043  82.647 114.710  0.00  0.00    -0.241 OA
ENDBRANCH   3  22
TORSDOF 7
ENDMDL
MODEL 5
REMARK VINA RESULT:      -5.0     12.180     14.037
REMARK  7 active torsions:
REMARK  status: ('A' for Active; 'I' for Inactive)
REMARK    1  A    between atoms: C_2  and  C_3 
REMARK    2  A    between atoms: C_3  and  O_6 
REMARK    3  A    between atoms: C_3  and  C_4 
REMARK    4  A    between atoms: C_7  and  O_6 
REMARK    5  A    between atoms: C_9  and  C_10 
REMARK    6  A    between atoms: N_15  and  C_14 
REMARK    7  A    between atoms: N_20  and  C_19 
REMARK       I    between atoms: C_22  and  N_20 
ROOT
ATOM      1  C   LIG d   1      10.688  78.919 114.406  0.00  0.00     0.161 C 
ATOM      2  C   LIG d   1       9.351  79.085 114.805  0.00  0.00     0.016 C 
ATOM      3  C   LIG d   1       8.563  78.041 115.340  0.00  0.00     0.038 C 
ATOM      4  C   LIG d   1       9.109  76.787 115.656  0.00  0.00     0.028 C 
ATOM      5  C   LIG d   1      10.320  76.422 114.804  0.00  0.00    -0.047 C 
ATOM      6  C   LIG d   1      11.333  77.588 114.846  0.00  0.00     0.091 C 
ENDROOT
BRANCH   1   7
ATOM      7  O   LIG d   1      11.477  80.035 114.866  0.00  0.00    -0.368 OA
BRANCH   7   8
ATOM      8  C   LIG d   1      11.822  81.025 113.867  0.00  0.00     0.119 C 
BRANCH   8   9
ATOM      9  C   LIG d   1      10.653  82.025 113.783  0.00  0.00     0.028 C 
ATOM     10  C   LIG d   1      10.354  82.459 112.338  0.00  0.00     0.006 C 
ENDBRANCH   8   9
BRANCH   8  11
ATOM     11  C   LIG d   1      11.922  80.400 112.472  0.00  0.00     0.028 C 
ATOM     12  C   LIG d   1      13.362  80.360 111.938  0.00  0.00     0.006 C 
ENDBRANCH   8  11
ENDBRANCH   7   8
ENDBRANCH   1   7
BRANCH   6  13
ATOM     13  N   LIG d   1      12.510  77.349 113.971  0.00  0.00    -0.311 N 
ATOM     14  C   LIG d   1      13.770  77.475 114.385  0.00  0.00     0.210 C 
ATOM     15  C   LIG d   1      14.833  77.201 113.317  0.00  0.00     0.109 C 
ATOM     16  O   LIG d   1      14.108  77.757 115.545  0.00  0.00    -0.276 OA
ATOM     17  H   LIG d   1      12.327  77.085 113.022  0.00  0.00     0.149 HD
ENDBRANCH   6  13
BRANCH   5  18
ATOM     18  N   LIG d   1      10.870  75.159 115.330  0.00  0.00     0.381 N 
ATOM     19  H   LIG d   1      10.304  74.832 116.087  0.00  0.00    -0.090 HD
ATOM     20  H   LIG d   1      11.797  75.328 115.679  0.00  0.00    -0.090 HD
ATOM     21  H   LIG d   1      10.899  74.473 114.608  0.00  0.00    -0.090 HD
ENDBRANCH   5  18
BRANCH   3  22
ATOM     22  C   LIG d   1       7.203  78.233 115.528  0.00  0.00     0.382 C 
ATOM     23  O   LIG d   1       6.379  77.654 114.780  0.00  0.00    -0.241 OA
ATOM     24  O   LIG d   1       6.791  79.012 116.408  0.00  0.00    -0.241 OA
ENDBRANCH   3  22
TORSDOF 7
ENDMDL
MODEL 6
REMARK VINA RESULT:      -4.8      2.219      3.055
REMARK  7 active torsions:
REMARK  status: ('A' for Active; 'I' for Inactive)
REMARK    1  A    between atoms: C_2  and  C_3 
REMARK    2  A    between atoms: C_3  and  O_6 
REMARK    3  A    between atoms: C_3  and  C_4 
REMARK    4  A    between atoms: C_7  and  O_6 
REMARK    5  A    between atoms: C_9  and  C_10 
REMARK    6  A    between atoms: N_15  and  C_14 
REMARK    7  A    between atoms: N_20  and  C_19 
REMARK       I    between atoms: C_22  and  N_20 
ROOT
ATOM      1  C   LIG d   1      -0.555  80.552 115.109  0.00  0.00     0.161 C 
ATOM      2  C   LIG d   1      -0.582  81.926 114.816  0.00  0.00     0.016 C 
ATOM      3  C   LIG d   1      -1.321  82.479 113.744  0.00  0.00     0.038 C 
ATOM      4  C   LIG d   1      -2.209  81.707 112.981  0.00  0.00     0.028 C 
ATOM      5  C   LIG d   1      -1.831  80.231 112.918  0.00  0.00    -0.047 C 
ATOM      6  C   LIG d   1      -1.606  79.710 114.355  0.00  0.00     0.091 C 
ENDROOT
BRANCH   1   7
ATOM      7  O   LIG d   1      -0.680  80.353 116.531  0.00  0.00    -0.368 OA
BRANCH   7   8
ATOM      8  C   LIG d   1      -1.458  81.344 117.247  0.00  0.00     0.119 C 
BRANCH   8   9
ATOM      9  C   LIG d   1      -0.706  81.667 118.553  0.00  0.00     0.028 C 
ATOM     10  C   LIG d   1       0.701  82.231 118.295  0.00  0.00     0.006 C 
ENDBRANCH   8   9
BRANCH   8  11
ATOM     11  C   LIG d   1      -2.811  80.777 117.688  0.00  0.00     0.028 C 
ATOM     12  C   LIG d   1      -2.792  79.249 117.851  0.00  0.00     0.006 C 
ENDBRANCH   8  11
ENDBRANCH   7   8
ENDBRANCH   1   7
BRANCH   6  13
ATOM     13  N   LIG d   1      -1.150  78.295 114.380  0.00  0.00    -0.311 N 
ATOM     14  C   LIG d   1      -1.977  77.261 114.520  0.00  0.00     0.210 C 
ATOM     15  C   LIG d   1      -1.297  75.888 114.539  0.00  0.00     0.109 C 
ATOM     16  O   LIG d   1      -3.212  77.348 114.596  0.00  0.00    -0.276 OA
ATOM     17  H   LIG d   1      -0.166  78.132 114.293  0.00  0.00     0.149 HD
ENDBRANCH   6  13
BRANCH   5  18
ATOM     18  N   LIG d   1      -2.913  79.523 112.208  0.00  0.00     0.381 N 
ATOM     19  H   LIG d   1      -2.590  78.626 111.907  0.00  0.00    -0.090 HD
ATOM     20  H   LIG d   1      -3.171  80.055 111.396  0.00  0.00    -0.090 HD
ATOM     21  H   LIG d   1      -3.701  79.416 112.808  0.00  0.00    -0.090 HD
ENDBRANCH   5  18
BRANCH   3  22
ATOM     22  C   LIG d   1      -1.143  83.811 113.403  0.00  0.00     0.382 C 
ATOM     23  O   LIG d   1      -1.984  84.668 113.766  0.00  0.00    -0.241 OA
ATOM     24  O   LIG d   1      -0.177  84.159 112.699  0.00  0.00    -0.241 OA
ENDBRANCH   3  22
TORSDOF 7
ENDMDL
MODEL 7
REMARK VINA RESULT:      -4.8      2.411      5.928
REMARK  7 active torsions:
REMARK  status: ('A' for Active; 'I' for Inactive)
REMARK    1  A    between atoms: C_2  and  C_3 
REMARK    2  A    between atoms: C_3  and  O_6 
REMARK    3  A    between atoms: C_3  and  C_4 
REMARK    4  A    between atoms: C_7  and  O_6 
REMARK    5  A    between atoms: C_9  and  C_10 
REMARK    6  A    between atoms: N_15  and  C_14 
REMARK    7  A    between atoms: N_20  and  C_19 
REMARK       I    between atoms: C_22  and  N_20 
ROOT
ATOM      1  C   LIG d   1      -2.979  78.609 115.771  0.00  0.00     0.161 C 
ATOM      2  C   LIG d   1      -2.161  77.571 115.294  0.00  0.00     0.016 C 
ATOM      3  C   LIG d   1      -2.260  76.234 115.742  0.00  0.00     0.038 C 
ATOM      4  C   LIG d   1      -3.292  75.812 116.593  0.00  0.00     0.028 C 
ATOM      5  C   LIG d   1      -3.829  76.922 117.491  0.00  0.00    -0.047 C 
ATOM      6  C   LIG d   1      -4.183  78.146 116.617  0.00  0.00     0.091 C 
ENDROOT
BRANCH   1   7
ATOM      7  O   LIG d   1      -3.425  79.425 114.669  0.00  0.00    -0.368 OA
BRANCH   7   8
ATOM      8  C   LIG d   1      -2.519  80.474 114.246  0.00  0.00     0.119 C 
BRANCH   8   9
ATOM      9  C   LIG d   1      -3.108  81.815 114.726  0.00  0.00     0.028 C 
ATOM     10  C   LIG d   1      -2.050  82.929 114.797  0.00  0.00     0.006 C 
ENDBRANCH   8   9
BRANCH   8  11
ATOM     11  C   LIG d   1      -2.463  80.579 112.719  0.00  0.00     0.028 C 
ATOM     12  C   LIG d   1      -1.921  79.304 112.054  0.00  0.00     0.006 C 
ENDBRANCH   8  11
ENDBRANCH   7   8
ENDBRANCH   1   7
BRANCH   6  13
ATOM     13  N   LIG d   1      -4.637  79.308 117.426  0.00  0.00    -0.311 N 
ATOM     14  C   LIG d   1      -5.915  79.545 117.715  0.00  0.00     0.210 C 
ATOM     15  C   LIG d   1      -6.167  80.808 118.545  0.00  0.00     0.109 C 
ATOM     16  O   LIG d   1      -6.862  78.813 117.389  0.00  0.00    -0.276 OA
ATOM     17  H   LIG d   1      -3.932  79.936 117.757  0.00  0.00     0.149 HD
ENDBRANCH   6  13
BRANCH   5  18
ATOM     18  N   LIG d   1      -4.988  76.380 118.225  0.00  0.00     0.381 N 
ATOM     19  H   LIG d   1      -4.952  75.380 118.224  0.00  0.00    -0.090 HD
ATOM     20  H   LIG d   1      -5.831  76.665 117.757  0.00  0.00    -0.090 HD
ATOM     21  H   LIG d   1      -4.988  76.719 119.161  0.00  0.00    -0.090 HD
ENDBRANCH   5  18
BRANCH   3  22
ATOM     22  C   LIG d   1      -1.295  75.311 115.369  0.00  0.00     0.382 C 
ATOM     23  O   LIG d   1      -0.982  75.185 114.160  0.00  0.00    -0.241 OA
ATOM     24  O   LIG d   1      -0.765  74.572 116.220  0.00  0.00    -0.241 OA
ENDBRANCH   3  22
TORSDOF 7
ENDMDL
MODEL 8
REMARK VINA RESULT:      -4.7      1.572      1.929
REMARK  7 active torsions:
REMARK  status: ('A' for Active; 'I' for Inactive)
REMARK    1  A    between atoms: C_2  and  C_3 
REMARK    2  A    between atoms: C_3  and  O_6 
REMARK    3  A    between atoms: C_3  and  C_4 
REMARK    4  A    between atoms: C_7  and  O_6 
REMARK    5  A    between atoms: C_9  and  C_10 
REMARK    6  A    between atoms: N_15  and  C_14 
REMARK    7  A    between atoms: N_20  and  C_19 
REMARK       I    between atoms: C_22  and  N_20 
ROOT
ATOM      1  C   LIG d   1      -2.465  79.674 116.553  0.00  0.00     0.161 C 
ATOM      2  C   LIG d   1      -2.850  80.678 115.649  0.00  0.00     0.016 C 
ATOM      3  C   LIG d   1      -2.750  80.540 114.245  0.00  0.00     0.038 C 
ATOM      4  C   LIG d   1      -2.398  79.324 113.642  0.00  0.00     0.028 C 
ATOM      5  C   LIG d   1      -1.519  78.443 114.523  0.00  0.00    -0.047 C 
ATOM      6  C   LIG d   1      -2.184  78.299 115.911  0.00  0.00     0.091 C 
ENDROOT
BRANCH   1   7
ATOM      7  O   LIG d   1      -3.455  79.548 117.593  0.00  0.00    -0.368 OA
BRANCH   7   8
ATOM      8  C   LIG d   1      -4.837  79.529 117.159  0.00  0.00     0.119 C 
BRANCH   8   9
ATOM      9  C   LIG d   1      -5.617  80.510 118.055  0.00  0.00     0.028 C 
ATOM     10  C   LIG d   1      -7.137  80.425 117.834  0.00  0.00     0.006 C 
ENDBRANCH   8   9
BRANCH   8  11
ATOM     11  C   LIG d   1      -5.479  78.160 117.402  0.00  0.00     0.028 C 
ATOM     12  C   LIG d   1      -4.772  77.358 118.506  0.00  0.00     0.006 C 
ENDBRANCH   8  11
ENDBRANCH   7   8
ENDBRANCH   1   7
BRANCH   6  13
ATOM     13  N   LIG d   1      -1.347  77.521 116.862  0.00  0.00    -0.311 N 
ATOM     14  C   LIG d   1      -1.478  76.209 117.050  0.00  0.00     0.210 C 
ATOM     15  C   LIG d   1      -0.529  75.608 118.091  0.00  0.00     0.109 C 
ATOM     16  O   LIG d   1      -2.267  75.481 116.430  0.00  0.00    -0.276 OA
ATOM     17  H   LIG d   1      -0.660  78.028 117.385  0.00  0.00     0.149 HD
ENDBRANCH   6  13
BRANCH   5  18
ATOM     18  N   LIG d   1      -1.343  77.153 113.830  0.00  0.00     0.381 N 
ATOM     19  H   LIG d   1      -0.377  77.018 113.607  0.00  0.00    -0.090 HD
ATOM     20  H   LIG d   1      -1.865  77.172 112.971  0.00  0.00    -0.090 HD
ATOM     21  H   LIG d   1      -1.665  76.409 114.407  0.00  0.00    -0.090 HD
ENDBRANCH   5  18
BRANCH   3  22
ATOM     22  C   LIG d   1      -2.966  81.641 113.430  0.00  0.00     0.382 C 
ATOM     23  O   LIG d   1      -2.357  82.715 113.652  0.00  0.00    -0.241 OA
ATOM     24  O   LIG d   1      -3.796  81.587 112.502  0.00  0.00    -0.241 OA
ENDBRANCH   3  22
TORSDOF 7
ENDMDL
MODEL 9
REMARK VINA RESULT:      -4.6     21.724     24.136
REMARK  7 active torsions:
REMARK  status: ('A' for Active; 'I' for Inactive)
REMARK    1  A    between atoms: C_2  and  C_3 
REMARK    2  A    between atoms: C_3  and  O_6 
REMARK    3  A    between atoms: C_3  and  C_4 
REMARK    4  A    between atoms: C_7  and  O_6 
REMARK    5  A    between atoms: C_9  and  C_10 
REMARK    6  A    between atoms: N_15  and  C_14 
REMARK    7  A    between atoms: N_20  and  C_19 
REMARK       I    between atoms: C_22  and  N_20 
ROOT
ATOM      1  C   LIG d   1     -25.324  85.768 113.902  0.00  0.00     0.161 C 
ATOM      2  C   LIG d   1     -24.184  86.587 113.950  0.00  0.00     0.016 C 
ATOM      3  C   LIG d   1     -22.867  86.083 114.052  0.00  0.00     0.038 C 
ATOM      4  C   LIG d   1     -22.590  84.711 113.961  0.00  0.00     0.028 C 
ATOM      5  C   LIG d   1     -23.745  83.827 114.420  0.00  0.00    -0.047 C 
ATOM      6  C   LIG d   1     -25.034  84.268 113.689  0.00  0.00     0.091 C 
ENDROOT
BRANCH   1   7
ATOM      7  O   LIG d   1     -26.231  86.252 112.891  0.00  0.00    -0.368 OA
BRANCH   7   8
ATOM      8  C   LIG d   1     -27.299  87.115 113.353  0.00  0.00     0.119 C 
BRANCH   8   9
ATOM      9  C   LIG d   1     -28.566  86.249 113.492  0.00  0.00     0.028 C 
ATOM     10  C   LIG d   1     -29.100  85.767 112.133  0.00  0.00     0.006 C 
ENDBRANCH   8   9
BRANCH   8  11
ATOM     11  C   LIG d   1     -27.648  88.178 112.308  0.00  0.00     0.028 C 
ATOM     12  C   LIG d   1     -26.443  89.050 111.920  0.00  0.00     0.006 C 
ENDBRANCH   8  11
ENDBRANCH   7   8
ENDBRANCH   1   7
BRANCH   6  13
ATOM     13  N   LIG d   1     -26.230  83.510 114.143  0.00  0.00    -0.311 N 
ATOM     14  C   LIG d   1     -27.060  82.883 113.310  0.00  0.00     0.210 C 
ATOM     15  C   LIG d   1     -28.241  82.179 113.984  0.00  0.00     0.109 C 
ATOM     16  O   LIG d   1     -26.911  82.817 112.081  0.00  0.00    -0.276 OA
ATOM     17  H   LIG d   1     -26.408  83.486 115.128  0.00  0.00     0.149 HD
ENDBRANCH   6  13
BRANCH   5  18
ATOM     18  N   LIG d   1     -23.373  82.427 114.142  0.00  0.00     0.381 N 
ATOM     19  H   LIG d   1     -22.483  82.225 114.553  0.00  0.00    -0.090 HD
ATOM     20  H   LIG d   1     -23.298  82.302 113.148  0.00  0.00    -0.090 HD
ATOM     21  H   LIG d   1     -24.064  81.811 114.511  0.00  0.00    -0.090 HD
ENDBRANCH   5  18
BRANCH   3  22
ATOM     22  C   LIG d   1     -21.814  86.953 114.288  0.00  0.00     0.382 C 
ATOM     23  O   LIG d   1     -21.939  87.874 115.132  0.00  0.00    -0.241 OA
ATOM     24  O   LIG d   1     -20.757  86.857 113.637  0.00  0.00    -0.241 OA
ENDBRANCH   3  22
TORSDOF 7
ENDMDL
