MODEL 1
REMARK VINA RESULT:      -5.5      0.000      0.000
REMARK  7 active torsions:
REMARK  status: ('A' for Active; 'I' for Inactive)
REMARK    1  A    between atoms: C_2  and  C_3 
REMARK    2  A    between atoms: C_3  and  O_6 
REMARK    3  A    between atoms: C_3  and  C_4 
REMARK    4  A    between atoms: C_7  and  O_6 
REMARK    5  A    between atoms: C_9  and  C_10 
REMARK    6  A    between atoms: N_15  and  C_14 
REMARK    7  A    between atoms: N_20  and  C_19 
REMARK       I    between atoms: C_22  and  N_20 
ROOT
ATOM      1  C   LIG d   1      -3.362  77.895 115.386  0.00  0.00     0.161 C 
ATOM      2  C   LIG d   1      -3.391  78.989 114.506  0.00  0.00     0.016 C 
ATOM      3  C   LIG d   1      -2.316  79.330 113.653  0.00  0.00     0.038 C 
ATOM      4  C   LIG d   1      -1.190  78.506 113.513  0.00  0.00     0.028 C 
ATOM      5  C   LIG d   1      -0.897  77.665 114.751  0.00  0.00    -0.047 C 
ATOM      6  C   LIG d   1      -2.186  76.920 115.167  0.00  0.00     0.091 C 
ENDROOT
BRANCH   1   7
ATOM      7  O   LIG d   1      -4.616  77.187 115.329  0.00  0.00    -0.368 OA
BRANCH   7   8
ATOM      8  C   LIG d   1      -5.035  76.533 116.552  0.00  0.00     0.119 C 
BRANCH   8   9
ATOM      9  C   LIG d   1      -5.505  75.113 116.180  0.00  0.00     0.028 C 
ATOM     10  C   LIG d   1      -5.292  74.796 114.690  0.00  0.00     0.006 C 
ENDBRANCH   8   9
BRANCH   8  11
ATOM     11  C   LIG d   1      -6.262  77.220 117.159  0.00  0.00     0.028 C 
ATOM     12  C   LIG d   1      -7.419  76.245 117.428  0.00  0.00     0.006 C 
ENDBRANCH   8  11
ENDBRANCH   7   8
ENDBRANCH   1   7
BRANCH   6  13
ATOM     13  N   LIG d   1      -2.009  76.139 116.420  0.00  0.00    -0.311 N 
ATOM     14  C   LIG d   1      -1.735  74.836 116.439  0.00  0.00     0.210 C 
ATOM     15  C   LIG d   1      -1.613  74.221 117.837  0.00  0.00     0.109 C 
ATOM     16  O   LIG d   1      -1.549  74.137 115.431  0.00  0.00    -0.276 OA
ATOM     17  H   LIG d   1      -2.112  76.634 117.284  0.00  0.00     0.149 HD
ENDBRANCH   6  13
BRANCH   5  18
ATOM     18  N   LIG d   1       0.216  76.756 114.419  0.00  0.00     0.381 N 
ATOM     19  H   LIG d   1       0.505  76.261 115.239  0.00  0.00    -0.090 HD
ATOM     20  H   LIG d   1       0.993  77.300 114.088  0.00  0.00    -0.090 HD
ATOM     21  H   LIG d   1      -0.070  76.110 113.717  0.00  0.00    -0.090 HD
ENDBRANCH   5  18
BRANCH   3  22
ATOM     22  C   LIG d   1      -2.345  80.530 112.958  0.00  0.00     0.382 C 
ATOM     23  O   LIG d   1      -3.426  81.154 112.830  0.00  0.00    -0.241 OA
ATOM     24  O   LIG d   1      -1.313  80.973 112.420  0.00  0.00    -0.241 OA
ENDBRANCH   3  22
TORSDOF 7
ENDMDL
MODEL 2
REMARK VINA RESULT:      -5.0      2.724      3.672
REMARK  7 active torsions:
REMARK  status: ('A' for Active; 'I' for Inactive)
REMARK    1  A    between atoms: C_2  and  C_3 
REMARK    2  A    between atoms: C_3  and  O_6 
REMARK    3  A    between atoms: C_3  and  C_4 
REMARK    4  A    between atoms: C_7  and  O_6 
REMARK    5  A    between atoms: C_9  and  C_10 
REMARK    6  A    between atoms: N_15  and  C_14 
REMARK    7  A    between atoms: N_20  and  C_19 
REMARK       I    between atoms: C_22  and  N_20 
ROOT
ATOM      1  C   LIG d   1      -4.324  76.795 117.485  0.00  0.00     0.161 C 
ATOM      2  C   LIG d   1      -5.154  77.891 117.772  0.00  0.00     0.016 C 
ATOM      3  C   LIG d   1      -4.858  79.216 117.375  0.00  0.00     0.038 C 
ATOM      4  C   LIG d   1      -3.780  79.513 116.529  0.00  0.00     0.028 C 
ATOM      5  C   LIG d   1      -2.635  78.512 116.632  0.00  0.00    -0.047 C 
ATOM      6  C   LIG d   1      -3.201  77.083 116.467  0.00  0.00     0.091 C 
ENDROOT
BRANCH   1   7
ATOM      7  O   LIG d   1      -5.123  75.678 117.047  0.00  0.00    -0.368 OA
BRANCH   7   8
ATOM      8  C   LIG d   1      -6.391  76.006 116.429  0.00  0.00     0.119 C 
BRANCH   8   9
ATOM      9  C   LIG d   1      -7.439  75.013 116.966  0.00  0.00     0.028 C 
ATOM     10  C   LIG d   1      -8.847  75.627 117.040  0.00  0.00     0.006 C 
ENDBRANCH   8   9
BRANCH   8  11
ATOM     11  C   LIG d   1      -6.350  75.774 114.915  0.00  0.00     0.028 C 
ATOM     12  C   LIG d   1      -5.276  74.757 114.498  0.00  0.00     0.006 C 
ENDBRANCH   8  11
ENDBRANCH   7   8
ENDBRANCH   1   7
BRANCH   6  13
ATOM     13  N   LIG d   1      -2.159  76.037 116.639  0.00  0.00    -0.311 N 
ATOM     14  C   LIG d   1      -1.523  75.461 115.621  0.00  0.00     0.210 C 
ATOM     15  C   LIG d   1      -0.500  74.392 116.018  0.00  0.00     0.109 C 
ATOM     16  O   LIG d   1      -1.687  75.755 114.427  0.00  0.00    -0.276 OA
ATOM     17  H   LIG d   1      -1.941  75.760 117.577  0.00  0.00     0.149 HD
ENDBRANCH   6  13
BRANCH   5  18
ATOM     18  N   LIG d   1      -1.641  78.863 115.600  0.00  0.00     0.381 N 
ATOM     19  H   LIG d   1      -2.093  79.332 114.841  0.00  0.00    -0.090 HD
ATOM     20  H   LIG d   1      -1.227  78.018 115.247  0.00  0.00    -0.090 HD
ATOM     21  H   LIG d   1      -0.937  79.449 115.990  0.00  0.00    -0.090 HD
ENDBRANCH   5  18
BRANCH   3  22
ATOM     22  C   LIG d   1      -5.624  80.266 117.860  0.00  0.00     0.382 C 
ATOM     23  O   LIG d   1      -5.065  81.261 118.380  0.00  0.00    -0.241 OA
ATOM     24  O   LIG d   1      -6.868  80.210 117.824  0.00  0.00    -0.241 OA
ENDBRANCH   3  22
TORSDOF 7
ENDMDL
MODEL 3
REMARK VINA RESULT:      -4.9      1.467      2.144
REMARK  7 active torsions:
REMARK  status: ('A' for Active; 'I' for Inactive)
REMARK    1  A    between atoms: C_2  and  C_3 
REMARK    2  A    between atoms: C_3  and  O_6 
REMARK    3  A    between atoms: C_3  and  C_4 
REMARK    4  A    between atoms: C_7  and  O_6 
REMARK    5  A    between atoms: C_9  and  C_10 
REMARK    6  A    between atoms: N_15  and  C_14 
REMARK    7  A    between atoms: N_20  and  C_19 
REMARK       I    between atoms: C_22  and  N_20 
ROOT
ATOM      1  C   LIG d   1      -2.237  77.916 116.431  0.00  0.00     0.161 C 
ATOM      2  C   LIG d   1      -2.551  78.913 115.492  0.00  0.00     0.016 C 
ATOM      3  C   LIG d   1      -2.082  78.901 114.158  0.00  0.00     0.038 C 
ATOM      4  C   LIG d   1      -1.385  77.806 113.627  0.00  0.00     0.028 C 
ATOM      5  C   LIG d   1      -0.614  77.012 114.676  0.00  0.00    -0.047 C 
ATOM      6  C   LIG d   1      -1.570  76.657 115.838  0.00  0.00     0.091 C 
ENDROOT
BRANCH   1   7
ATOM      7  O   LIG d   1      -3.418  77.555 117.174  0.00  0.00    -0.368 OA
BRANCH   7   8
ATOM      8  C   LIG d   1      -4.648  78.207 116.772  0.00  0.00     0.119 C 
BRANCH   8   9
ATOM      9  C   LIG d   1      -5.136  79.050 117.967  0.00  0.00     0.028 C 
ATOM     10  C   LIG d   1      -5.055  80.561 117.691  0.00  0.00     0.006 C 
ENDBRANCH   8   9
BRANCH   8  11
ATOM     11  C   LIG d   1      -5.760  77.187 116.514  0.00  0.00     0.028 C 
ATOM     12  C   LIG d   1      -5.244  75.740 116.468  0.00  0.00     0.006 C 
ENDBRANCH   8  11
ENDBRANCH   7   8
ENDBRANCH   1   7
BRANCH   6  13
ATOM     13  N   LIG d   1      -0.876  75.952 116.947  0.00  0.00    -0.311 N 
ATOM     14  C   LIG d   1      -1.232  74.746 117.386  0.00  0.00     0.210 C 
ATOM     15  C   LIG d   1      -0.397  74.209 118.552  0.00  0.00     0.109 C 
ATOM     16  O   LIG d   1      -2.141  74.057 116.899  0.00  0.00    -0.276 OA
ATOM     17  H   LIG d   1      -0.107  76.426 117.379  0.00  0.00     0.149 HD
ENDBRANCH   6  13
BRANCH   5  18
ATOM     18  N   LIG d   1      -0.050  75.823 114.009  0.00  0.00     0.381 N 
ATOM     19  H   LIG d   1      -0.657  75.528 113.271  0.00  0.00    -0.090 HD
ATOM     20  H   LIG d   1       0.019  75.077 114.678  0.00  0.00    -0.090 HD
ATOM     21  H   LIG d   1       0.852  76.034 113.642  0.00  0.00    -0.090 HD
ENDBRANCH   5  18
BRANCH   3  22
ATOM     22  C   LIG d   1      -2.275  80.013 113.352  0.00  0.00     0.382 C 
ATOM     23  O   LIG d   1      -3.438  80.399 113.085  0.00  0.00    -0.241 OA
ATOM     24  O   LIG d   1      -1.301  80.609 112.854  0.00  0.00    -0.241 OA
ENDBRANCH   3  22
TORSDOF 7
ENDMDL
MODEL 4
REMARK VINA RESULT:      -4.9      1.909      4.061
REMARK  7 active torsions:
REMARK  status: ('A' for Active; 'I' for Inactive)
REMARK    1  A    between atoms: C_2  and  C_3 
REMARK    2  A    between atoms: C_3  and  O_6 
REMARK    3  A    between atoms: C_3  and  C_4 
REMARK    4  A    between atoms: C_7  and  O_6 
REMARK    5  A    between atoms: C_9  and  C_10 
REMARK    6  A    between atoms: N_15  and  C_14 
REMARK    7  A    between atoms: N_20  and  C_19 
REMARK       I    between atoms: C_22  and  N_20 
ROOT
ATOM      1  C   LIG d   1      -3.025  76.266 114.737  0.00  0.00     0.161 C 
ATOM      2  C   LIG d   1      -2.532  77.417 114.099  0.00  0.00     0.016 C 
ATOM      3  C   LIG d   1      -2.754  78.728 114.580  0.00  0.00     0.038 C 
ATOM      4  C   LIG d   1      -3.360  78.970 115.822  0.00  0.00     0.028 C 
ATOM      5  C   LIG d   1      -4.318  77.864 116.253  0.00  0.00    -0.047 C 
ATOM      6  C   LIG d   1      -3.593  76.503 116.152  0.00  0.00     0.091 C 
ENDROOT
BRANCH   1   7
ATOM      7  O   LIG d   1      -2.002  75.251 114.771  0.00  0.00    -0.368 OA
BRANCH   7   8
ATOM      8  C   LIG d   1      -0.955  75.435 115.755  0.00  0.00     0.119 C 
BRANCH   8   9
ATOM      9  C   LIG d   1       0.364  75.662 114.991  0.00  0.00     0.028 C 
ATOM     10  C   LIG d   1       0.679  74.519 114.011  0.00  0.00     0.006 C 
ENDBRANCH   8   9
BRANCH   8  11
ATOM     11  C   LIG d   1      -0.733  74.162 116.577  0.00  0.00     0.028 C 
ATOM     12  C   LIG d   1      -1.300  74.265 118.001  0.00  0.00     0.006 C 
ENDBRANCH   8  11
ENDBRANCH   7   8
ENDBRANCH   1   7
BRANCH   6  13
ATOM     13  N   LIG d   1      -4.485  75.360 116.476  0.00  0.00    -0.311 N 
ATOM     14  C   LIG d   1      -5.589  75.073 115.787  0.00  0.00     0.210 C 
ATOM     15  C   LIG d   1      -6.376  73.863 116.301  0.00  0.00     0.109 C 
ATOM     16  O   LIG d   1      -5.974  75.686 114.780  0.00  0.00    -0.276 OA
ATOM     17  H   LIG d   1      -4.231  74.790 117.259  0.00  0.00     0.149 HD
ENDBRANCH   6  13
BRANCH   5  18
ATOM     18  N   LIG d   1      -4.772  78.177 117.622  0.00  0.00     0.381 N 
ATOM     19  H   LIG d   1      -4.698  77.362 118.197  0.00  0.00    -0.090 HD
ATOM     20  H   LIG d   1      -5.737  78.454 117.589  0.00  0.00    -0.090 HD
ATOM     21  H   LIG d   1      -4.220  78.913 118.004  0.00  0.00    -0.090 HD
ENDBRANCH   5  18
BRANCH   3  22
ATOM     22  C   LIG d   1      -2.403  79.816 113.795  0.00  0.00     0.382 C 
ATOM     23  O   LIG d   1      -3.295  80.511 113.252  0.00  0.00    -0.241 OA
ATOM     24  O   LIG d   1      -1.205  80.085 113.588  0.00  0.00    -0.241 OA
ENDBRANCH   3  22
TORSDOF 7
ENDMDL
MODEL 5
REMARK VINA RESULT:      -4.8     11.824     14.398
REMARK  7 active torsions:
REMARK  status: ('A' for Active; 'I' for Inactive)
REMARK    1  A    between atoms: C_2  and  C_3 
REMARK    2  A    between atoms: C_3  and  O_6 
REMARK    3  A    between atoms: C_3  and  C_4 
REMARK    4  A    between atoms: C_7  and  O_6 
REMARK    5  A    between atoms: C_9  and  C_10 
REMARK    6  A    between atoms: N_15  and  C_14 
REMARK    7  A    between atoms: N_20  and  C_19 
REMARK       I    between atoms: C_22  and  N_20 
ROOT
ATOM      1  C   LIG d   1       2.318  89.397 116.254  0.00  0.00     0.161 C 
ATOM      2  C   LIG d   1       1.176  90.181 116.489  0.00  0.00     0.016 C 
ATOM      3  C   LIG d   1       1.201  91.398 117.208  0.00  0.00     0.038 C 
ATOM      4  C   LIG d   1       2.404  91.994 117.614  0.00  0.00     0.028 C 
ATOM      5  C   LIG d   1       3.531  90.992 117.841  0.00  0.00    -0.047 C 
ATOM      6  C   LIG d   1       3.656  90.087 116.593  0.00  0.00     0.091 C 
ENDROOT
BRANCH   1   7
ATOM      7  O   LIG d   1       2.323  88.938 114.888  0.00  0.00    -0.368 OA
BRANCH   7   8
ATOM      8  C   LIG d   1       2.234  87.504 114.697  0.00  0.00     0.119 C 
BRANCH   8   9
ATOM      9  C   LIG d   1       2.125  86.858 116.092  0.00  0.00     0.028 C 
ATOM     10  C   LIG d   1       3.147  85.726 116.295  0.00  0.00     0.006 C 
ENDBRANCH   8   9
BRANCH   8  11
ATOM     11  C   LIG d   1       3.521  86.942 114.088  0.00  0.00     0.028 C 
ATOM     12  C   LIG d   1       4.284  87.977 113.247  0.00  0.00     0.006 C 
ENDBRANCH   8  11
ENDBRANCH   7   8
ENDBRANCH   1   7
BRANCH   6  13
ATOM     13  N   LIG d   1       4.680  89.023 116.765  0.00  0.00    -0.311 N 
ATOM     14  C   LIG d   1       5.947  89.155 116.378  0.00  0.00     0.210 C 
ATOM     15  C   LIG d   1       6.832  87.931 116.630  0.00  0.00     0.109 C 
ATOM     16  O   LIG d   1       6.430  90.183 115.879  0.00  0.00    -0.276 OA
ATOM     17  H   LIG d   1       4.381  88.167 117.190  0.00  0.00     0.149 HD
ENDBRANCH   6  13
BRANCH   5  18
ATOM     18  N   LIG d   1       4.759  91.758 118.125  0.00  0.00     0.381 N 
ATOM     19  H   LIG d   1       5.451  91.559 117.430  0.00  0.00    -0.090 HD
ATOM     20  H   LIG d   1       5.120  91.474 119.019  0.00  0.00    -0.090 HD
ATOM     21  H   LIG d   1       4.558  92.733 118.134  0.00  0.00    -0.090 HD
ENDBRANCH   5  18
BRANCH   3  22
ATOM     22  C   LIG d   1       0.010  92.012 117.562  0.00  0.00     0.382 C 
ATOM     23  O   LIG d   1      -1.025  91.322 117.729  0.00  0.00    -0.241 OA
ATOM     24  O   LIG d   1      -0.054  93.251 117.675  0.00  0.00    -0.241 OA
ENDBRANCH   3  22
TORSDOF 7
ENDMDL
MODEL 6
REMARK VINA RESULT:      -4.8      2.651      4.163
REMARK  7 active torsions:
REMARK  status: ('A' for Active; 'I' for Inactive)
REMARK    1  A    between atoms: C_2  and  C_3 
REMARK    2  A    between atoms: C_3  and  O_6 
REMARK    3  A    between atoms: C_3  and  C_4 
REMARK    4  A    between atoms: C_7  and  O_6 
REMARK    5  A    between atoms: C_9  and  C_10 
REMARK    6  A    between atoms: N_15  and  C_14 
REMARK    7  A    between atoms: N_20  and  C_19 
REMARK       I    between atoms: C_22  and  N_20 
ROOT
ATOM      1  C   LIG d   1      -0.403  78.421 114.433  0.00  0.00     0.161 C 
ATOM      2  C   LIG d   1      -0.888  79.644 113.940  0.00  0.00     0.016 C 
ATOM      3  C   LIG d   1      -2.200  79.817 113.444  0.00  0.00     0.038 C 
ATOM      4  C   LIG d   1      -3.171  78.810 113.547  0.00  0.00     0.028 C 
ATOM      5  C   LIG d   1      -2.583  77.403 113.575  0.00  0.00    -0.047 C 
ATOM      6  C   LIG d   1      -1.481  77.341 114.657  0.00  0.00     0.091 C 
ENDROOT
BRANCH   1   7
ATOM      7  O   LIG d   1       0.342  78.645 115.647  0.00  0.00    -0.368 OA
BRANCH   7   8
ATOM      8  C   LIG d   1      -0.170  79.674 116.528  0.00  0.00     0.119 C 
BRANCH   8   9
ATOM      9  C   LIG d   1       1.026  80.249 117.313  0.00  0.00     0.028 C 
ATOM     10  C   LIG d   1       2.249  80.503 116.415  0.00  0.00     0.006 C 
ENDBRANCH   8   9
BRANCH   8  11
ATOM     11  C   LIG d   1      -1.105  79.085 117.589  0.00  0.00     0.028 C 
ATOM     12  C   LIG d   1      -2.562  79.544 117.419  0.00  0.00     0.006 C 
ENDBRANCH   8  11
ENDBRANCH   7   8
ENDBRANCH   1   7
BRANCH   6  13
ATOM     13  N   LIG d   1      -0.796  76.022 114.692  0.00  0.00    -0.311 N 
ATOM     14  C   LIG d   1      -1.158  75.030 115.504  0.00  0.00     0.210 C 
ATOM     15  C   LIG d   1      -0.305  73.762 115.394  0.00  0.00     0.109 C 
ATOM     16  O   LIG d   1      -2.124  75.068 116.280  0.00  0.00    -0.276 OA
ATOM     17  H   LIG d   1      -0.020  75.894 114.072  0.00  0.00     0.149 HD
ENDBRANCH   6  13
BRANCH   5  18
ATOM     18  N   LIG d   1      -3.691  76.462 113.823  0.00  0.00     0.381 N 
ATOM     19  H   LIG d   1      -4.451  76.662 113.204  0.00  0.00    -0.090 HD
ATOM     20  H   LIG d   1      -4.014  76.582 114.767  0.00  0.00    -0.090 HD
ATOM     21  H   LIG d   1      -3.380  75.525 113.687  0.00  0.00    -0.090 HD
ENDBRANCH   5  18
BRANCH   3  22
ATOM     22  C   LIG d   1      -2.541  80.997 112.800  0.00  0.00     0.382 C 
ATOM     23  O   LIG d   1      -3.743  81.352 112.735  0.00  0.00    -0.241 OA
ATOM     24  O   LIG d   1      -1.667  81.688 112.243  0.00  0.00    -0.241 OA
ENDBRANCH   3  22
TORSDOF 7
ENDMDL
MODEL 7
REMARK VINA RESULT:      -4.7      9.272     11.039
REMARK  7 active torsions:
REMARK  status: ('A' for Active; 'I' for Inactive)
REMARK    1  A    between atoms: C_2  and  C_3 
REMARK    2  A    between atoms: C_3  and  O_6 
REMARK    3  A    between atoms: C_3  and  C_4 
REMARK    4  A    between atoms: C_7  and  O_6 
REMARK    5  A    between atoms: C_9  and  C_10 
REMARK    6  A    between atoms: N_15  and  C_14 
REMARK    7  A    between atoms: N_20  and  C_19 
REMARK       I    between atoms: C_22  and  N_20 
ROOT
ATOM      1  C   LIG d   1       2.829  85.256 115.029  0.00  0.00     0.161 C 
ATOM      2  C   LIG d   1       2.749  86.435 114.268  0.00  0.00     0.016 C 
ATOM      3  C   LIG d   1       3.624  87.532 114.439  0.00  0.00     0.038 C 
ATOM      4  C   LIG d   1       4.740  87.465 115.285  0.00  0.00     0.028 C 
ATOM      5  C   LIG d   1       4.566  86.487 116.442  0.00  0.00    -0.047 C 
ATOM      6  C   LIG d   1       4.109  85.121 115.879  0.00  0.00     0.091 C 
ENDROOT
BRANCH   1   7
ATOM      7  O   LIG d   1       2.674  84.109 114.170  0.00  0.00    -0.368 OA
BRANCH   7   8
ATOM      8  C   LIG d   1       3.735  83.885 113.209  0.00  0.00     0.119 C 
BRANCH   8   9
ATOM      9  C   LIG d   1       3.097  83.893 111.806  0.00  0.00     0.028 C 
ATOM     10  C   LIG d   1       1.563  83.799 111.858  0.00  0.00     0.006 C 
ENDBRANCH   8   9
BRANCH   8  11
ATOM     11  C   LIG d   1       4.346  82.490 113.368  0.00  0.00     0.028 C 
ATOM     12  C   LIG d   1       5.117  82.032 112.120  0.00  0.00     0.006 C 
ENDBRANCH   8  11
ENDBRANCH   7   8
ENDBRANCH   1   7
BRANCH   6  13
ATOM     13  N   LIG d   1       3.834  84.130 116.952  0.00  0.00    -0.311 N 
ATOM     14  C   LIG d   1       4.733  83.245 117.380  0.00  0.00     0.210 C 
ATOM     15  C   LIG d   1       4.237  82.301 118.480  0.00  0.00     0.109 C 
ATOM     16  O   LIG d   1       5.903  83.174 116.977  0.00  0.00    -0.276 OA
ATOM     17  H   LIG d   1       2.919  84.139 117.357  0.00  0.00     0.149 HD
ENDBRANCH   6  13
BRANCH   5  18
ATOM     18  N   LIG d   1       5.852  86.415 117.162  0.00  0.00     0.381 N 
ATOM     19  H   LIG d   1       6.537  85.966 116.587  0.00  0.00    -0.090 HD
ATOM     20  H   LIG d   1       5.728  85.864 117.993  0.00  0.00    -0.090 HD
ATOM     21  H   LIG d   1       6.159  87.331 117.404  0.00  0.00    -0.090 HD
ENDBRANCH   5  18
BRANCH   3  22
ATOM     22  C   LIG d   1       3.361  88.728 113.788  0.00  0.00     0.382 C 
ATOM     23  O   LIG d   1       2.845  88.719 112.644  0.00  0.00    -0.241 OA
ATOM     24  O   LIG d   1       3.675  89.814 114.311  0.00  0.00    -0.241 OA
ENDBRANCH   3  22
TORSDOF 7
ENDMDL
MODEL 8
REMARK VINA RESULT:      -4.7     13.558     15.922
REMARK  7 active torsions:
REMARK  status: ('A' for Active; 'I' for Inactive)
REMARK    1  A    between atoms: C_2  and  C_3 
REMARK    2  A    between atoms: C_3  and  O_6 
REMARK    3  A    between atoms: C_3  and  C_4 
REMARK    4  A    between atoms: C_7  and  O_6 
REMARK    5  A    between atoms: C_9  and  C_10 
REMARK    6  A    between atoms: N_15  and  C_14 
REMARK    7  A    between atoms: N_20  and  C_19 
REMARK       I    between atoms: C_22  and  N_20 
ROOT
ATOM      1  C   LIG d   1      11.974  75.495 114.572  0.00  0.00     0.161 C 
ATOM      2  C   LIG d   1      10.623  75.680 114.912  0.00  0.00     0.016 C 
ATOM      3  C   LIG d   1       9.984  76.941 114.901  0.00  0.00     0.038 C 
ATOM      4  C   LIG d   1      10.616  78.088 114.400  0.00  0.00     0.028 C 
ATOM      5  C   LIG d   1      12.135  78.045 114.521  0.00  0.00    -0.047 C 
ATOM      6  C   LIG d   1      12.649  76.718 113.916  0.00  0.00     0.091 C 
ENDROOT
BRANCH   1   7
ATOM      7  O   LIG d   1      12.110  74.335 113.728  0.00  0.00    -0.368 OA
BRANCH   7   8
ATOM      8  C   LIG d   1      12.572  73.125 114.378  0.00  0.00     0.119 C 
BRANCH   8   9
ATOM      9  C   LIG d   1      14.079  72.990 114.088  0.00  0.00     0.028 C 
ATOM     10  C   LIG d   1      14.943  73.256 115.332  0.00  0.00     0.006 C 
ENDBRANCH   8   9
BRANCH   8  11
ATOM     11  C   LIG d   1      11.927  71.880 113.761  0.00  0.00     0.028 C 
ATOM     12  C   LIG d   1      10.739  71.356 114.582  0.00  0.00     0.006 C 
ENDBRANCH   8  11
ENDBRANCH   7   8
ENDBRANCH   1   7
BRANCH   6  13
ATOM     13  N   LIG d   1      14.118  76.556 114.069  0.00  0.00    -0.311 N 
ATOM     14  C   LIG d   1      15.003  77.027 113.191  0.00  0.00     0.210 C 
ATOM     15  C   LIG d   1      16.468  76.733 113.530  0.00  0.00     0.109 C 
ATOM     16  O   LIG d   1      14.715  77.687 112.182  0.00  0.00    -0.276 OA
ATOM     17  H   LIG d   1      14.441  76.060 114.877  0.00  0.00     0.149 HD
ENDBRANCH   6  13
BRANCH   5  18
ATOM     18  N   LIG d   1      12.671  79.237 113.838  0.00  0.00     0.381 N 
ATOM     19  H   LIG d   1      13.030  78.980 112.940  0.00  0.00    -0.090 HD
ATOM     20  H   LIG d   1      13.427  79.612 114.383  0.00  0.00    -0.090 HD
ATOM     21  H   LIG d   1      11.955  79.922 113.734  0.00  0.00    -0.090 HD
ENDBRANCH   5  18
BRANCH   3  22
ATOM     22  C   LIG d   1       8.709  77.070 115.433  0.00  0.00     0.382 C 
ATOM     23  O   LIG d   1       7.782  77.539 114.731  0.00  0.00    -0.241 OA
ATOM     24  O   LIG d   1       8.486  76.764 116.620  0.00  0.00    -0.241 OA
ENDBRANCH   3  22
TORSDOF 7
ENDMDL
MODEL 9
REMARK VINA RESULT:      -4.7      2.373      5.000
REMARK  7 active torsions:
REMARK  status: ('A' for Active; 'I' for Inactive)
REMARK    1  A    between atoms: C_2  and  C_3 
REMARK    2  A    between atoms: C_3  and  O_6 
REMARK    3  A    between atoms: C_3  and  C_4 
REMARK    4  A    between atoms: C_7  and  O_6 
REMARK    5  A    between atoms: C_9  and  C_10 
REMARK    6  A    between atoms: N_15  and  C_14 
REMARK    7  A    between atoms: N_20  and  C_19 
REMARK       I    between atoms: C_22  and  N_20 
ROOT
ATOM      1  C   LIG d   1      -2.838  77.813 115.898  0.00  0.00     0.161 C 
ATOM      2  C   LIG d   1      -1.518  78.116 116.270  0.00  0.00     0.016 C 
ATOM      3  C   LIG d   1      -0.615  77.158 116.786  0.00  0.00     0.038 C 
ATOM      4  C   LIG d   1      -0.927  75.791 116.824  0.00  0.00     0.028 C 
ATOM      5  C   LIG d   1      -2.422  75.513 116.931  0.00  0.00    -0.047 C 
ATOM      6  C   LIG d   1      -3.160  76.305 115.828  0.00  0.00     0.091 C 
ENDROOT
BRANCH   1   7
ATOM      7  O   LIG d   1      -3.152  78.451 114.644  0.00  0.00    -0.368 OA
BRANCH   7   8
ATOM      8  C   LIG d   1      -2.036  78.677 113.748  0.00  0.00     0.119 C 
BRANCH   8   9
ATOM      9  C   LIG d   1      -2.213  80.080 113.135  0.00  0.00     0.028 C 
ATOM     10  C   LIG d   1      -1.032  80.479 112.233  0.00  0.00     0.006 C 
ENDBRANCH   8   9
BRANCH   8  11
ATOM     11  C   LIG d   1      -2.068  77.709 112.562  0.00  0.00     0.028 C 
ATOM     12  C   LIG d   1      -3.406  77.738 111.806  0.00  0.00     0.006 C 
ENDBRANCH   8  11
ENDBRANCH   7   8
ENDBRANCH   1   7
BRANCH   6  13
ATOM     13  N   LIG d   1      -4.636  76.156 115.914  0.00  0.00    -0.311 N 
ATOM     14  C   LIG d   1      -5.362  75.509 115.003  0.00  0.00     0.210 C 
ATOM     15  C   LIG d   1      -6.870  75.490 115.273  0.00  0.00     0.109 C 
ATOM     16  O   LIG d   1      -4.897  74.922 114.015  0.00  0.00    -0.276 OA
ATOM     17  H   LIG d   1      -5.092  76.575 116.701  0.00  0.00     0.149 HD
ENDBRANCH   6  13
BRANCH   5  18
ATOM     18  N   LIG d   1      -2.614  74.054 116.822  0.00  0.00     0.381 N 
ATOM     19  H   LIG d   1      -2.468  73.626 117.714  0.00  0.00    -0.090 HD
ATOM     20  H   LIG d   1      -1.935  73.685 116.180  0.00  0.00    -0.090 HD
ATOM     21  H   LIG d   1      -3.533  73.854 116.495  0.00  0.00    -0.090 HD
ENDBRANCH   5  18
BRANCH   3  22
ATOM     22  C   LIG d   1       0.601  77.571 117.309  0.00  0.00     0.382 C 
ATOM     23  O   LIG d   1       0.730  78.740 117.746  0.00  0.00    -0.241 OA
ATOM     24  O   LIG d   1       1.582  76.804 117.307  0.00  0.00    -0.241 OA
ENDBRANCH   3  22
TORSDOF 7
ENDMDL
