MODEL 1
REMARK VINA RESULT:      -5.8      0.000      0.000
REMARK  7 active torsions:
REMARK  status: ('A' for Active; 'I' for Inactive)
REMARK    1  A    between atoms: C_2  and  C_3 
REMARK    2  A    between atoms: C_3  and  O_6 
REMARK    3  A    between atoms: C_3  and  C_4 
REMARK    4  A    between atoms: C_7  and  O_6 
REMARK    5  A    between atoms: C_9  and  C_10 
REMARK    6  A    between atoms: N_15  and  C_14 
REMARK    7  A    between atoms: N_20  and  C_19 
REMARK       I    between atoms: C_22  and  N_20 
ROOT
ATOM      1  C   LIG d   1       2.454  85.170 112.313  0.00  0.00     0.161 C 
ATOM      2  C   LIG d   1       2.919  86.457 112.633  0.00  0.00     0.016 C 
ATOM      3  C   LIG d   1       2.808  87.025 113.923  0.00  0.00     0.038 C 
ATOM      4  C   LIG d   1       2.359  86.282 115.025  0.00  0.00     0.028 C 
ATOM      5  C   LIG d   1       1.412  85.149 114.646  0.00  0.00    -0.047 C 
ATOM      6  C   LIG d   1       2.063  84.303 113.528  0.00  0.00     0.091 C 
ENDROOT
BRANCH   1   7
ATOM      7  O   LIG d   1       3.431  84.486 111.503  0.00  0.00    -0.368 OA
BRANCH   7   8
ATOM      8  C   LIG d   1       3.119  84.368 110.093  0.00  0.00     0.119 C 
BRANCH   8   9
ATOM      9  C   LIG d   1       1.664  84.837 109.899  0.00  0.00     0.028 C 
ATOM     10  C   LIG d   1       0.751  83.717 109.374  0.00  0.00     0.006 C 
ENDBRANCH   8   9
BRANCH   8  11
ATOM     11  C   LIG d   1       3.137  82.905 109.639  0.00  0.00     0.028 C 
ATOM     12  C   LIG d   1       4.536  82.273 109.722  0.00  0.00     0.006 C 
ENDBRANCH   8  11
ENDBRANCH   7   8
ENDBRANCH   1   7
BRANCH   6  13
ATOM     13  N   LIG d   1       1.166  83.223 113.039  0.00  0.00    -0.311 N 
ATOM     14  C   LIG d   1       1.583  81.984 112.782  0.00  0.00     0.210 C 
ATOM     15  C   LIG d   1       0.500  81.031 112.268  0.00  0.00     0.109 C 
ATOM     16  O   LIG d   1       2.740  81.576 112.963  0.00  0.00    -0.276 OA
ATOM     17  H   LIG d   1       0.204  83.459 112.895  0.00  0.00     0.149 HD
ENDBRANCH   6  13
BRANCH   5  18
ATOM     18  N   LIG d   1       1.132  84.373 115.869  0.00  0.00     0.381 N 
ATOM     19  H   LIG d   1       1.795  84.610 116.579  0.00  0.00    -0.090 HD
ATOM     20  H   LIG d   1       1.227  83.394 115.662  0.00  0.00    -0.090 HD
ATOM     21  H   LIG d   1       0.208  84.564 116.190  0.00  0.00    -0.090 HD
ENDBRANCH   5  18
BRANCH   3  22
ATOM     22  C   LIG d   1       3.112  88.364 114.112  0.00  0.00     0.382 C 
ATOM     23  O   LIG d   1       3.905  88.944 113.331  0.00  0.00    -0.241 OA
ATOM     24  O   LIG d   1       2.639  88.989 115.080  0.00  0.00    -0.241 OA
ENDBRANCH   3  22
TORSDOF 7
ENDMDL
MODEL 2
REMARK VINA RESULT:      -5.7      8.232     11.238
REMARK  7 active torsions:
REMARK  status: ('A' for Active; 'I' for Inactive)
REMARK    1  A    between atoms: C_2  and  C_3 
REMARK    2  A    between atoms: C_3  and  O_6 
REMARK    3  A    between atoms: C_3  and  C_4 
REMARK    4  A    between atoms: C_7  and  O_6 
REMARK    5  A    between atoms: C_9  and  C_10 
REMARK    6  A    between atoms: N_15  and  C_14 
REMARK    7  A    between atoms: N_20  and  C_19 
REMARK       I    between atoms: C_22  and  N_20 
ROOT
ATOM      1  C   LIG d   1      -3.553  76.564 114.800  0.00  0.00     0.161 C 
ATOM      2  C   LIG d   1      -3.574  77.388 113.663  0.00  0.00     0.016 C 
ATOM      3  C   LIG d   1      -2.414  77.971 113.103  0.00  0.00     0.038 C 
ATOM      4  C   LIG d   1      -1.127  77.645 113.557  0.00  0.00     0.028 C 
ATOM      5  C   LIG d   1      -1.091  77.214 115.019  0.00  0.00    -0.047 C 
ATOM      6  C   LIG d   1      -2.147  76.107 115.242  0.00  0.00     0.091 C 
ENDROOT
BRANCH   1   7
ATOM      7  O   LIG d   1      -4.408  75.423 114.593  0.00  0.00    -0.368 OA
BRANCH   7   8
ATOM      8  C   LIG d   1      -5.491  75.257 115.541  0.00  0.00     0.119 C 
BRANCH   8   9
ATOM      9  C   LIG d   1      -5.896  73.770 115.525  0.00  0.00     0.028 C 
ATOM     10  C   LIG d   1      -7.134  73.490 116.394  0.00  0.00     0.006 C 
ENDBRANCH   8   9
BRANCH   8  11
ATOM     11  C   LIG d   1      -6.742  76.023 115.098  0.00  0.00     0.028 C 
ATOM     12  C   LIG d   1      -6.944  76.002 113.575  0.00  0.00     0.006 C 
ENDBRANCH   8  11
ENDBRANCH   7   8
ENDBRANCH   1   7
BRANCH   6  13
ATOM     13  N   LIG d   1      -2.236  75.688 116.665  0.00  0.00    -0.311 N 
ATOM     14  C   LIG d   1      -1.787  74.517 117.114  0.00  0.00     0.210 C 
ATOM     15  C   LIG d   1      -1.996  74.276 118.613  0.00  0.00     0.109 C 
ATOM     16  O   LIG d   1      -1.205  73.670 116.421  0.00  0.00    -0.276 OA
ATOM     17  H   LIG d   1      -2.666  76.329 117.303  0.00  0.00     0.149 HD
ENDBRANCH   6  13
BRANCH   5  18
ATOM     18  N   LIG d   1       0.283  76.772 115.320  0.00  0.00     0.381 N 
ATOM     19  H   LIG d   1       0.389  76.642 116.306  0.00  0.00    -0.090 HD
ATOM     20  H   LIG d   1       0.926  77.485 115.025  0.00  0.00    -0.090 HD
ATOM     21  H   LIG d   1       0.479  75.919 114.843  0.00  0.00    -0.090 HD
ENDBRANCH   5  18
BRANCH   3  22
ATOM     22  C   LIG d   1      -2.537  78.923 112.103  0.00  0.00     0.382 C 
ATOM     23  O   LIG d   1      -2.025  78.719 110.976  0.00  0.00    -0.241 OA
ATOM     24  O   LIG d   1      -3.117  80.003 112.326  0.00  0.00    -0.241 OA
ENDBRANCH   3  22
TORSDOF 7
ENDMDL
MODEL 3
REMARK VINA RESULT:      -5.5      2.650      3.526
REMARK  7 active torsions:
REMARK  status: ('A' for Active; 'I' for Inactive)
REMARK    1  A    between atoms: C_2  and  C_3 
REMARK    2  A    between atoms: C_3  and  O_6 
REMARK    3  A    between atoms: C_3  and  C_4 
REMARK    4  A    between atoms: C_7  and  O_6 
REMARK    5  A    between atoms: C_9  and  C_10 
REMARK    6  A    between atoms: N_15  and  C_14 
REMARK    7  A    between atoms: N_20  and  C_19 
REMARK       I    between atoms: C_22  and  N_20 
ROOT
ATOM      1  C   LIG d   1       0.805  83.022 112.316  0.00  0.00     0.161 C 
ATOM      2  C   LIG d   1       0.115  83.865 111.429  0.00  0.00     0.016 C 
ATOM      3  C   LIG d   1      -0.061  85.250 111.650  0.00  0.00     0.038 C 
ATOM      4  C   LIG d   1       0.576  85.919 112.706  0.00  0.00     0.028 C 
ATOM      5  C   LIG d   1       0.865  85.022 113.905  0.00  0.00    -0.047 C 
ATOM      6  C   LIG d   1       1.602  83.754 113.416  0.00  0.00     0.091 C 
ENDROOT
BRANCH   1   7
ATOM      7  O   LIG d   1       1.670  82.137 111.576  0.00  0.00    -0.368 OA
BRANCH   7   8
ATOM      8  C   LIG d   1       2.095  82.605 110.272  0.00  0.00     0.119 C 
BRANCH   8   9
ATOM      9  C   LIG d   1       2.026  81.408 109.305  0.00  0.00     0.028 C 
ATOM     10  C   LIG d   1       0.691  80.650 109.404  0.00  0.00     0.006 C 
ENDBRANCH   8   9
BRANCH   8  11
ATOM     11  C   LIG d   1       3.566  83.031 110.286  0.00  0.00     0.028 C 
ATOM     12  C   LIG d   1       4.455  82.133 109.410  0.00  0.00     0.006 C 
ENDBRANCH   8  11
ENDBRANCH   7   8
ENDBRANCH   1   7
BRANCH   6  13
ATOM     13  N   LIG d   1       1.848  82.783 114.514  0.00  0.00    -0.311 N 
ATOM     14  C   LIG d   1       3.009  82.687 115.160  0.00  0.00     0.210 C 
ATOM     15  C   LIG d   1       3.057  81.606 116.245  0.00  0.00     0.109 C 
ATOM     16  O   LIG d   1       3.992  83.415 114.960  0.00  0.00    -0.276 OA
ATOM     17  H   LIG d   1       1.094  82.174 114.763  0.00  0.00     0.149 HD
ENDBRANCH   6  13
BRANCH   5  18
ATOM     18  N   LIG d   1       1.652  85.811 114.872  0.00  0.00     0.381 N 
ATOM     19  H   LIG d   1       2.628  85.695 114.689  0.00  0.00    -0.090 HD
ATOM     20  H   LIG d   1       1.462  85.472 115.799  0.00  0.00    -0.090 HD
ATOM     21  H   LIG d   1       1.406  86.774 114.806  0.00  0.00    -0.090 HD
ENDBRANCH   5  18
BRANCH   3  22
ATOM     22  C   LIG d   1      -0.915  85.974 110.832  0.00  0.00     0.382 C 
ATOM     23  O   LIG d   1      -0.994  85.700 109.610  0.00  0.00    -0.241 OA
ATOM     24  O   LIG d   1      -1.575  86.925 111.291  0.00  0.00    -0.241 OA
ENDBRANCH   3  22
TORSDOF 7
ENDMDL
MODEL 4
REMARK VINA RESULT:      -5.4      2.045      2.344
REMARK  7 active torsions:
REMARK  status: ('A' for Active; 'I' for Inactive)
REMARK    1  A    between atoms: C_2  and  C_3 
REMARK    2  A    between atoms: C_3  and  O_6 
REMARK    3  A    between atoms: C_3  and  C_4 
REMARK    4  A    between atoms: C_7  and  O_6 
REMARK    5  A    between atoms: C_9  and  C_10 
REMARK    6  A    between atoms: N_15  and  C_14 
REMARK    7  A    between atoms: N_20  and  C_19 
REMARK       I    between atoms: C_22  and  N_20 
ROOT
ATOM      1  C   LIG d   1       0.997  84.604 113.705  0.00  0.00     0.161 C 
ATOM      2  C   LIG d   1       1.270  85.879 113.182  0.00  0.00     0.016 C 
ATOM      3  C   LIG d   1       2.464  86.589 113.446  0.00  0.00     0.038 C 
ATOM      4  C   LIG d   1       3.538  86.003 114.132  0.00  0.00     0.028 C 
ATOM      5  C   LIG d   1       3.111  84.911 115.107  0.00  0.00    -0.047 C 
ATOM      6  C   LIG d   1       2.203  83.904 114.365  0.00  0.00     0.091 C 
ENDROOT
BRANCH   1   7
ATOM      7  O   LIG d   1       0.431  83.766 112.678  0.00  0.00    -0.368 OA
BRANCH   7   8
ATOM      8  C   LIG d   1       0.734  84.139 111.311  0.00  0.00     0.119 C 
BRANCH   8   9
ATOM      9  C   LIG d   1      -0.590  84.126 110.523  0.00  0.00     0.028 C 
ATOM     10  C   LIG d   1      -0.876  85.471 109.833  0.00  0.00     0.006 C 
ENDBRANCH   8   9
BRANCH   8  11
ATOM     11  C   LIG d   1       1.621  83.092 110.631  0.00  0.00     0.028 C 
ATOM     12  C   LIG d   1       3.103  83.500 110.594  0.00  0.00     0.006 C 
ENDBRANCH   8  11
ENDBRANCH   7   8
ENDBRANCH   1   7
BRANCH   6  13
ATOM     13  N   LIG d   1       1.672  82.848 115.266  0.00  0.00    -0.311 N 
ATOM     14  C   LIG d   1       2.259  81.664 115.434  0.00  0.00     0.210 C 
ATOM     15  C   LIG d   1       1.536  80.714 116.394  0.00  0.00     0.109 C 
ATOM     16  O   LIG d   1       3.327  81.323 114.904  0.00  0.00    -0.276 OA
ATOM     17  H   LIG d   1       0.826  83.053 115.760  0.00  0.00     0.149 HD
ENDBRANCH   6  13
BRANCH   5  18
ATOM     18  N   LIG d   1       4.336  84.294 115.649  0.00  0.00     0.381 N 
ATOM     19  H   LIG d   1       4.262  83.297 115.604  0.00  0.00    -0.090 HD
ATOM     20  H   LIG d   1       4.434  84.560 116.614  0.00  0.00    -0.090 HD
ATOM     21  H   LIG d   1       5.130  84.599 115.131  0.00  0.00    -0.090 HD
ENDBRANCH   5  18
BRANCH   3  22
ATOM     22  C   LIG d   1       2.576  87.914 113.054  0.00  0.00     0.382 C 
ATOM     23  O   LIG d   1       1.656  88.452 112.391  0.00  0.00    -0.241 OA
ATOM     24  O   LIG d   1       3.604  88.566 113.317  0.00  0.00    -0.241 OA
ENDBRANCH   3  22
TORSDOF 7
ENDMDL
MODEL 5
REMARK VINA RESULT:      -5.3      2.300      4.283
REMARK  7 active torsions:
REMARK  status: ('A' for Active; 'I' for Inactive)
REMARK    1  A    between atoms: C_2  and  C_3 
REMARK    2  A    between atoms: C_3  and  O_6 
REMARK    3  A    between atoms: C_3  and  C_4 
REMARK    4  A    between atoms: C_7  and  O_6 
REMARK    5  A    between atoms: C_9  and  C_10 
REMARK    6  A    between atoms: N_15  and  C_14 
REMARK    7  A    between atoms: N_20  and  C_19 
REMARK       I    between atoms: C_22  and  N_20 
ROOT
ATOM      1  C   LIG d   1       2.066  84.389 113.104  0.00  0.00     0.161 C 
ATOM      2  C   LIG d   1       2.499  85.635 113.587  0.00  0.00     0.016 C 
ATOM      3  C   LIG d   1       2.398  86.835 112.846  0.00  0.00     0.038 C 
ATOM      4  C   LIG d   1       1.714  86.895 111.623  0.00  0.00     0.028 C 
ATOM      5  C   LIG d   1       1.705  85.570 110.867  0.00  0.00    -0.047 C 
ATOM      6  C   LIG d   1       1.216  84.454 111.818  0.00  0.00     0.091 C 
ENDROOT
BRANCH   1   7
ATOM      7  O   LIG d   1       1.354  83.685 114.141  0.00  0.00    -0.368 OA
BRANCH   7   8
ATOM      8  C   LIG d   1       2.162  83.141 115.213  0.00  0.00     0.119 C 
BRANCH   8   9
ATOM      9  C   LIG d   1       2.158  81.607 115.063  0.00  0.00     0.028 C 
ATOM     10  C   LIG d   1       1.920  80.888 116.402  0.00  0.00     0.006 C 
ENDBRANCH   8   9
BRANCH   8  11
ATOM     11  C   LIG d   1       1.532  83.417 116.581  0.00  0.00     0.028 C 
ATOM     12  C   LIG d   1       0.955  84.836 116.696  0.00  0.00     0.006 C 
ENDBRANCH   8  11
ENDBRANCH   7   8
ENDBRANCH   1   7
BRANCH   6  13
ATOM     13  N   LIG d   1       1.258  83.111 111.183  0.00  0.00    -0.311 N 
ATOM     14  C   LIG d   1       0.168  82.439 110.818  0.00  0.00     0.210 C 
ATOM     15  C   LIG d   1       0.434  81.062 110.200  0.00  0.00     0.109 C 
ATOM     16  O   LIG d   1      -0.992  82.865 110.916  0.00  0.00    -0.276 OA
ATOM     17  H   LIG d   1       2.161  82.703 111.037  0.00  0.00     0.149 HD
ENDBRANCH   6  13
BRANCH   5  18
ATOM     18  N   LIG d   1       0.844  85.739 109.682  0.00  0.00     0.381 N 
ATOM     19  H   LIG d   1       0.629  86.707 109.554  0.00  0.00    -0.090 HD
ATOM     20  H   LIG d   1      -0.016  85.242 109.832  0.00  0.00    -0.090 HD
ATOM     21  H   LIG d   1       1.304  85.383 108.873  0.00  0.00    -0.090 HD
ENDBRANCH   5  18
BRANCH   3  22
ATOM     22  C   LIG d   1       3.020  87.984 113.309  0.00  0.00     0.382 C 
ATOM     23  O   LIG d   1       4.121  88.341 112.823  0.00  0.00    -0.241 OA
ATOM     24  O   LIG d   1       2.517  88.644 114.238  0.00  0.00    -0.241 OA
ENDBRANCH   3  22
TORSDOF 7
ENDMDL
MODEL 6
REMARK VINA RESULT:      -5.2      7.227     10.228
REMARK  7 active torsions:
REMARK  status: ('A' for Active; 'I' for Inactive)
REMARK    1  A    between atoms: C_2  and  C_3 
REMARK    2  A    between atoms: C_3  and  O_6 
REMARK    3  A    between atoms: C_3  and  C_4 
REMARK    4  A    between atoms: C_7  and  O_6 
REMARK    5  A    between atoms: C_9  and  C_10 
REMARK    6  A    between atoms: N_15  and  C_14 
REMARK    7  A    between atoms: N_20  and  C_19 
REMARK       I    between atoms: C_22  and  N_20 
ROOT
ATOM      1  C   LIG d   1      -2.983  78.355 115.661  0.00  0.00     0.161 C 
ATOM      2  C   LIG d   1      -3.136  79.420 114.758  0.00  0.00     0.016 C 
ATOM      3  C   LIG d   1      -2.477  79.481 113.508  0.00  0.00     0.038 C 
ATOM      4  C   LIG d   1      -1.733  78.401 113.009  0.00  0.00     0.028 C 
ATOM      5  C   LIG d   1      -1.142  77.516 114.101  0.00  0.00    -0.047 C 
ATOM      6  C   LIG d   1      -2.264  77.117 115.087  0.00  0.00     0.091 C 
ENDROOT
BRANCH   1   7
ATOM      7  O   LIG d   1      -4.268  77.983 116.200  0.00  0.00    -0.368 OA
BRANCH   7   8
ATOM      8  C   LIG d   1      -4.391  78.028 117.642  0.00  0.00     0.119 C 
BRANCH   8   9
ATOM      9  C   LIG d   1      -5.668  77.253 118.022  0.00  0.00     0.028 C 
ATOM     10  C   LIG d   1      -6.154  76.333 116.890  0.00  0.00     0.006 C 
ENDBRANCH   8   9
BRANCH   8  11
ATOM     11  C   LIG d   1      -4.623  79.459 118.138  0.00  0.00     0.028 C 
ATOM     12  C   LIG d   1      -5.903  80.088 117.564  0.00  0.00     0.006 C 
ENDBRANCH   8  11
ENDBRANCH   7   8
ENDBRANCH   1   7
BRANCH   6  13
ATOM     13  N   LIG d   1      -1.755  76.320 116.233  0.00  0.00    -0.311 N 
ATOM     14  C   LIG d   1      -2.284  75.158 116.611  0.00  0.00     0.210 C 
ATOM     15  C   LIG d   1      -1.620  74.511 117.830  0.00  0.00     0.109 C 
ATOM     16  O   LIG d   1      -3.221  74.586 116.032  0.00  0.00    -0.276 OA
ATOM     17  H   LIG d   1      -0.977  76.695 116.739  0.00  0.00     0.149 HD
ENDBRANCH   6  13
BRANCH   5  18
ATOM     18  N   LIG d   1      -0.511  76.357 113.443  0.00  0.00     0.381 N 
ATOM     19  H   LIG d   1      -0.140  75.736 114.134  0.00  0.00    -0.090 HD
ATOM     20  H   LIG d   1       0.249  76.682 112.871  0.00  0.00    -0.090 HD
ATOM     21  H   LIG d   1      -1.179  75.879 112.880  0.00  0.00    -0.090 HD
ENDBRANCH   5  18
BRANCH   3  22
ATOM     22  C   LIG d   1      -2.526  80.648 112.761  0.00  0.00     0.382 C 
ATOM     23  O   LIG d   1      -1.614  80.905 111.939  0.00  0.00    -0.241 OA
ATOM     24  O   LIG d   1      -3.448  81.468 112.931  0.00  0.00    -0.241 OA
ENDBRANCH   3  22
TORSDOF 7
ENDMDL
MODEL 7
REMARK VINA RESULT:      -5.2      8.888     11.824
REMARK  7 active torsions:
REMARK  status: ('A' for Active; 'I' for Inactive)
REMARK    1  A    between atoms: C_2  and  C_3 
REMARK    2  A    between atoms: C_3  and  O_6 
REMARK    3  A    between atoms: C_3  and  C_4 
REMARK    4  A    between atoms: C_7  and  O_6 
REMARK    5  A    between atoms: C_9  and  C_10 
REMARK    6  A    between atoms: N_15  and  C_14 
REMARK    7  A    between atoms: N_20  and  C_19 
REMARK       I    between atoms: C_22  and  N_20 
ROOT
ATOM      1  C   LIG d   1      -3.332  75.603 115.229  0.00  0.00     0.161 C 
ATOM      2  C   LIG d   1      -3.231  75.034 116.510  0.00  0.00     0.016 C 
ATOM      3  C   LIG d   1      -2.097  75.185 117.340  0.00  0.00     0.038 C 
ATOM      4  C   LIG d   1      -1.042  76.047 117.006  0.00  0.00     0.028 C 
ATOM      5  C   LIG d   1      -0.874  76.243 115.503  0.00  0.00    -0.047 C 
ATOM      6  C   LIG d   1      -2.238  76.637 114.893  0.00  0.00     0.091 C 
ENDROOT
BRANCH   1   7
ATOM      7  O   LIG d   1      -4.641  76.182 115.055  0.00  0.00    -0.368 OA
BRANCH   7   8
ATOM      8  C   LIG d   1      -5.571  75.998 116.150  0.00  0.00     0.119 C 
BRANCH   8   9
ATOM      9  C   LIG d   1      -6.905  75.515 115.549  0.00  0.00     0.028 C 
ATOM     10  C   LIG d   1      -7.081  75.951 114.085  0.00  0.00     0.006 C 
ENDBRANCH   8   9
BRANCH   8  11
ATOM     11  C   LIG d   1      -5.893  77.328 116.837  0.00  0.00     0.028 C 
ATOM     12  C   LIG d   1      -5.555  77.322 118.336  0.00  0.00     0.006 C 
ENDBRANCH   8  11
ENDBRANCH   7   8
ENDBRANCH   1   7
BRANCH   6  13
ATOM     13  N   LIG d   1      -2.182  76.767 113.413  0.00  0.00    -0.311 N 
ATOM     14  C   LIG d   1      -2.653  77.822 112.751  0.00  0.00     0.210 C 
ATOM     15  C   LIG d   1      -2.513  77.745 111.228  0.00  0.00     0.109 C 
ATOM     16  O   LIG d   1      -3.145  78.829 113.283  0.00  0.00    -0.276 OA
ATOM     17  H   LIG d   1      -1.770  76.009 112.904  0.00  0.00     0.149 HD
ENDBRANCH   6  13
BRANCH   5  18
ATOM     18  N   LIG d   1       0.168  77.268 115.301  0.00  0.00     0.381 N 
ATOM     19  H   LIG d   1       0.762  77.309 116.104  0.00  0.00    -0.090 HD
ATOM     20  H   LIG d   1      -0.275  78.163 115.189  0.00  0.00    -0.090 HD
ATOM     21  H   LIG d   1       0.706  77.052 114.490  0.00  0.00    -0.090 HD
ENDBRANCH   5  18
BRANCH   3  22
ATOM     22  C   LIG d   1      -1.992  74.437 118.504  0.00  0.00     0.382 C 
ATOM     23  O   LIG d   1      -1.591  73.250 118.452  0.00  0.00    -0.241 OA
ATOM     24  O   LIG d   1      -2.337  74.921 119.598  0.00  0.00    -0.241 OA
ENDBRANCH   3  22
TORSDOF 7
ENDMDL
MODEL 8
REMARK VINA RESULT:      -5.1      8.601     11.124
REMARK  7 active torsions:
REMARK  status: ('A' for Active; 'I' for Inactive)
REMARK    1  A    between atoms: C_2  and  C_3 
REMARK    2  A    between atoms: C_3  and  O_6 
REMARK    3  A    between atoms: C_3  and  C_4 
REMARK    4  A    between atoms: C_7  and  O_6 
REMARK    5  A    between atoms: C_9  and  C_10 
REMARK    6  A    between atoms: N_15  and  C_14 
REMARK    7  A    between atoms: N_20  and  C_19 
REMARK       I    between atoms: C_22  and  N_20 
ROOT
ATOM      1  C   LIG d   1      -2.045  75.312 115.152  0.00  0.00     0.161 C 
ATOM      2  C   LIG d   1      -1.557  74.964 116.422  0.00  0.00     0.016 C 
ATOM      3  C   LIG d   1      -0.750  75.820 117.207  0.00  0.00     0.038 C 
ATOM      4  C   LIG d   1      -0.500  77.149 116.837  0.00  0.00     0.028 C 
ATOM      5  C   LIG d   1      -0.551  77.378 115.330  0.00  0.00    -0.047 C 
ATOM      6  C   LIG d   1      -1.875  76.800 114.779  0.00  0.00     0.091 C 
ENDROOT
BRANCH   1   7
ATOM      7  O   LIG d   1      -3.427  74.921 115.035  0.00  0.00    -0.368 OA
BRANCH   7   8
ATOM      8  C   LIG d   1      -4.405  75.978 115.201  0.00  0.00     0.119 C 
BRANCH   8   9
ATOM      9  C   LIG d   1      -5.096  75.760 116.561  0.00  0.00     0.028 C 
ATOM     10  C   LIG d   1      -4.536  76.681 117.658  0.00  0.00     0.006 C 
ENDBRANCH   8   9
BRANCH   8  11
ATOM     11  C   LIG d   1      -5.521  75.873 114.157  0.00  0.00     0.028 C 
ATOM     12  C   LIG d   1      -6.912  75.707 114.788  0.00  0.00     0.006 C 
ENDBRANCH   8  11
ENDBRANCH   7   8
ENDBRANCH   1   7
BRANCH   6  13
ATOM     13  N   LIG d   1      -1.968  76.906 113.300  0.00  0.00    -0.311 N 
ATOM     14  C   LIG d   1      -2.584  77.908 112.674  0.00  0.00     0.210 C 
ATOM     15  C   LIG d   1      -2.581  77.815 111.145  0.00  0.00     0.109 C 
ATOM     16  O   LIG d   1      -3.104  78.882 113.240  0.00  0.00    -0.276 OA
ATOM     17  H   LIG d   1      -1.546  76.175 112.762  0.00  0.00     0.149 HD
ENDBRANCH   6  13
BRANCH   5  18
ATOM     18  N   LIG d   1      -0.411  78.827 115.094  0.00  0.00     0.381 N 
ATOM     19  H   LIG d   1       0.313  78.992 114.424  0.00  0.00    -0.090 HD
ATOM     20  H   LIG d   1      -0.150  79.273 115.956  0.00  0.00    -0.090 HD
ATOM     21  H   LIG d   1      -1.272  79.204 114.763  0.00  0.00    -0.090 HD
ENDBRANCH   5  18
BRANCH   3  22
ATOM     22  C   LIG d   1      -0.151  75.333 118.359  0.00  0.00     0.382 C 
ATOM     23  O   LIG d   1      -0.815  74.641 119.167  0.00  0.00    -0.241 OA
ATOM     24  O   LIG d   1       1.034  75.614 118.622  0.00  0.00    -0.241 OA
ENDBRANCH   3  22
TORSDOF 7
ENDMDL
MODEL 9
REMARK VINA RESULT:      -5.1      2.128      2.885
REMARK  7 active torsions:
REMARK  status: ('A' for Active; 'I' for Inactive)
REMARK    1  A    between atoms: C_2  and  C_3 
REMARK    2  A    between atoms: C_3  and  O_6 
REMARK    3  A    between atoms: C_3  and  C_4 
REMARK    4  A    between atoms: C_7  and  O_6 
REMARK    5  A    between atoms: C_9  and  C_10 
REMARK    6  A    between atoms: N_15  and  C_14 
REMARK    7  A    between atoms: N_20  and  C_19 
REMARK       I    between atoms: C_22  and  N_20 
ROOT
ATOM      1  C   LIG d   1       2.628  83.658 113.042  0.00  0.00     0.161 C 
ATOM      2  C   LIG d   1       2.522  84.890 112.375  0.00  0.00     0.016 C 
ATOM      3  C   LIG d   1       2.673  86.139 113.020  0.00  0.00     0.038 C 
ATOM      4  C   LIG d   1       3.092  86.239 114.355  0.00  0.00     0.028 C 
ATOM      5  C   LIG d   1       2.719  85.025 115.199  0.00  0.00    -0.047 C 
ATOM      6  C   LIG d   1       3.195  83.745 114.475  0.00  0.00     0.091 C 
ENDROOT
BRANCH   1   7
ATOM      7  O   LIG d   1       3.407  82.739 112.251  0.00  0.00    -0.368 OA
BRANCH   7   8
ATOM      8  C   LIG d   1       2.691  81.604 111.704  0.00  0.00     0.119 C 
BRANCH   8   9
ATOM      9  C   LIG d   1       3.267  81.325 110.302  0.00  0.00     0.028 C 
ATOM     10  C   LIG d   1       3.971  82.554 109.702  0.00  0.00     0.006 C 
ENDBRANCH   8   9
BRANCH   8  11
ATOM     11  C   LIG d   1       1.213  81.934 111.476  0.00  0.00     0.028 C 
ATOM     12  C   LIG d   1       0.507  80.912 110.572  0.00  0.00     0.006 C 
ENDBRANCH   8  11
ENDBRANCH   7   8
ENDBRANCH   1   7
BRANCH   6  13
ATOM     13  N   LIG d   1       2.796  82.506 115.192  0.00  0.00    -0.311 N 
ATOM     14  C   LIG d   1       3.661  81.708 115.815  0.00  0.00     0.210 C 
ATOM     15  C   LIG d   1       3.042  80.472 116.475  0.00  0.00     0.109 C 
ATOM     16  O   LIG d   1       4.879  81.924 115.911  0.00  0.00    -0.276 OA
ATOM     17  H   LIG d   1       1.822  82.272 115.191  0.00  0.00     0.149 HD
ENDBRANCH   6  13
BRANCH   5  18
ATOM     18  N   LIG d   1       3.335  85.200 116.528  0.00  0.00     0.381 N 
ATOM     19  H   LIG d   1       2.662  85.574 117.167  0.00  0.00    -0.090 HD
ATOM     20  H   LIG d   1       4.094  85.854 116.451  0.00  0.00    -0.090 HD
ATOM     21  H   LIG d   1       3.673  84.326 116.865  0.00  0.00    -0.090 HD
ENDBRANCH   5  18
BRANCH   3  22
ATOM     22  C   LIG d   1       2.364  87.306 112.338  0.00  0.00     0.382 C 
ATOM     23  O   LIG d   1       2.137  87.269 111.104  0.00  0.00    -0.241 OA
ATOM     24  O   LIG d   1       2.352  88.401 112.931  0.00  0.00    -0.241 OA
ENDBRANCH   3  22
TORSDOF 7
ENDMDL
