MODEL 1
REMARK VINA RESULT:      -5.3      0.000      0.000
REMARK  7 active torsions:
REMARK  status: ('A' for Active; 'I' for Inactive)
REMARK    1  A    between atoms: C_2  and  C_3 
REMARK    2  A    between atoms: C_3  and  O_6 
REMARK    3  A    between atoms: C_3  and  C_4 
REMARK    4  A    between atoms: C_7  and  O_6 
REMARK    5  A    between atoms: C_9  and  C_10 
REMARK    6  A    between atoms: N_15  and  C_14 
REMARK    7  A    between atoms: N_20  and  C_19 
REMARK       I    between atoms: C_22  and  N_20 
ROOT
ATOM      1  C   LIG d   1      -2.300  56.719 117.717  0.00  0.00     0.161 C 
ATOM      2  C   LIG d   1      -1.586  57.437 116.743  0.00  0.00     0.016 C 
ATOM      3  C   LIG d   1      -1.386  58.835 116.797  0.00  0.00     0.038 C 
ATOM      4  C   LIG d   1      -1.760  59.595 117.916  0.00  0.00     0.028 C 
ATOM      5  C   LIG d   1      -2.929  58.996 118.691  0.00  0.00    -0.047 C 
ATOM      6  C   LIG d   1      -2.620  57.514 119.000  0.00  0.00     0.091 C 
ENDROOT
BRANCH   1   7
ATOM      7  O   LIG d   1      -1.597  55.504 118.042  0.00  0.00    -0.368 OA
BRANCH   7   8
ATOM      8  C   LIG d   1      -0.160  55.531 117.858  0.00  0.00     0.119 C 
BRANCH   8   9
ATOM      9  C   LIG d   1       0.286  54.103 117.485  0.00  0.00     0.028 C 
ATOM     10  C   LIG d   1       0.181  53.831 115.975  0.00  0.00     0.006 C 
ENDBRANCH   8   9
BRANCH   8  11
ATOM     11  C   LIG d   1       0.564  55.852 119.169  0.00  0.00     0.028 C 
ATOM     12  C   LIG d   1       1.197  57.252 119.173  0.00  0.00     0.006 C 
ENDBRANCH   8  11
ENDBRANCH   7   8
ENDBRANCH   1   7
BRANCH   6  13
ATOM     13  N   LIG d   1      -3.748  56.830 119.684  0.00  0.00    -0.311 N 
ATOM     14  C   LIG d   1      -3.662  56.322 120.912  0.00  0.00     0.210 C 
ATOM     15  C   LIG d   1      -4.937  55.641 121.420  0.00  0.00     0.109 C 
ATOM     16  O   LIG d   1      -2.662  56.398 121.640  0.00  0.00    -0.276 OA
ATOM     17  H   LIG d   1      -4.608  56.750 119.176  0.00  0.00     0.149 HD
ENDBRANCH   6  13
BRANCH   5  18
ATOM     18  N   LIG d   1      -3.123  59.812 119.905  0.00  0.00     0.381 N 
ATOM     19  H   LIG d   1      -4.100  59.899 120.101  0.00  0.00    -0.090 HD
ATOM     20  H   LIG d   1      -2.751  60.731 119.742  0.00  0.00    -0.090 HD
ATOM     21  H   LIG d   1      -2.658  59.389 120.678  0.00  0.00    -0.090 HD
ENDBRANCH   5  18
BRANCH   3  22
ATOM     22  C   LIG d   1      -0.841  59.495 115.706  0.00  0.00     0.382 C 
ATOM     23  O   LIG d   1      -1.298  59.287 114.556  0.00  0.00    -0.241 OA
ATOM     24  O   LIG d   1       0.130  60.260 115.851  0.00  0.00    -0.241 OA
ENDBRANCH   3  22
TORSDOF 7
ENDMDL
MODEL 2
REMARK VINA RESULT:      -5.2     16.870     19.273
REMARK  7 active torsions:
REMARK  status: ('A' for Active; 'I' for Inactive)
REMARK    1  A    between atoms: C_2  and  C_3 
REMARK    2  A    between atoms: C_3  and  O_6 
REMARK    3  A    between atoms: C_3  and  C_4 
REMARK    4  A    between atoms: C_7  and  O_6 
REMARK    5  A    between atoms: C_9  and  C_10 
REMARK    6  A    between atoms: N_15  and  C_14 
REMARK    7  A    between atoms: N_20  and  C_19 
REMARK       I    between atoms: C_22  and  N_20 
ROOT
ATOM      1  C   LIG d   1      -7.939  74.602 118.602  0.00  0.00     0.161 C 
ATOM      2  C   LIG d   1      -7.958  73.336 117.992  0.00  0.00     0.016 C 
ATOM      3  C   LIG d   1      -9.103  72.792 117.365  0.00  0.00     0.038 C 
ATOM      4  C   LIG d   1     -10.271  73.544 117.172  0.00  0.00     0.028 C 
ATOM      5  C   LIG d   1     -10.465  74.641 118.214  0.00  0.00    -0.047 C 
ATOM      6  C   LIG d   1      -9.171  75.482 118.304  0.00  0.00     0.091 C 
ENDROOT
BRANCH   1   7
ATOM      7  O   LIG d   1      -6.728  75.298 118.246  0.00  0.00    -0.368 OA
BRANCH   7   8
ATOM      8  C   LIG d   1      -6.061  74.841 117.043  0.00  0.00     0.119 C 
BRANCH   8   9
ATOM      9  C   LIG d   1      -4.554  74.764 117.351  0.00  0.00     0.028 C 
ATOM     10  C   LIG d   1      -4.071  75.936 118.222  0.00  0.00     0.006 C 
ENDBRANCH   8   9
BRANCH   8  11
ATOM     11  C   LIG d   1      -6.192  75.865 115.911  0.00  0.00     0.028 C 
ATOM     12  C   LIG d   1      -5.719  75.317 114.555  0.00  0.00     0.006 C 
ENDBRANCH   8  11
ENDBRANCH   7   8
ENDBRANCH   1   7
BRANCH   6  13
ATOM     13  N   LIG d   1      -9.245  76.525 119.361  0.00  0.00    -0.311 N 
ATOM     14  C   LIG d   1      -9.686  77.762 119.140  0.00  0.00     0.210 C 
ATOM     15  C   LIG d   1      -9.661  78.685 120.363  0.00  0.00     0.109 C 
ATOM     16  O   LIG d   1     -10.126  78.173 118.056  0.00  0.00    -0.276 OA
ATOM     17  H   LIG d   1      -8.937  76.267 120.278  0.00  0.00     0.149 HD
ENDBRANCH   6  13
BRANCH   5  18
ATOM     18  N   LIG d   1     -11.643  75.433 117.815  0.00  0.00     0.381 N 
ATOM     19  H   LIG d   1     -11.370  76.140 117.162  0.00  0.00    -0.090 HD
ATOM     20  H   LIG d   1     -12.023  75.883 118.628  0.00  0.00    -0.090 HD
ATOM     21  H   LIG d   1     -12.330  74.839 117.404  0.00  0.00    -0.090 HD
ENDBRANCH   5  18
BRANCH   3  22
ATOM     22  C   LIG d   1      -9.099  71.466 116.959  0.00  0.00     0.382 C 
ATOM     23  O   LIG d   1      -8.365  71.105 116.007  0.00  0.00    -0.241 OA
ATOM     24  O   LIG d   1      -9.852  70.637 117.503  0.00  0.00    -0.241 OA
ENDBRANCH   3  22
TORSDOF 7
ENDMDL
MODEL 3
REMARK VINA RESULT:      -5.2      2.288      4.007
REMARK  7 active torsions:
REMARK  status: ('A' for Active; 'I' for Inactive)
REMARK    1  A    between atoms: C_2  and  C_3 
REMARK    2  A    between atoms: C_3  and  O_6 
REMARK    3  A    between atoms: C_3  and  C_4 
REMARK    4  A    between atoms: C_7  and  O_6 
REMARK    5  A    between atoms: C_9  and  C_10 
REMARK    6  A    between atoms: N_15  and  C_14 
REMARK    7  A    between atoms: N_20  and  C_19 
REMARK       I    between atoms: C_22  and  N_20 
ROOT
ATOM      1  C   LIG d   1      -0.171  57.608 118.484  0.00  0.00     0.161 C 
ATOM      2  C   LIG d   1      -0.219  58.574 117.464  0.00  0.00     0.016 C 
ATOM      3  C   LIG d   1      -1.182  58.564 116.429  0.00  0.00     0.038 C 
ATOM      4  C   LIG d   1      -2.261  57.668 116.428  0.00  0.00     0.028 C 
ATOM      5  C   LIG d   1      -1.965  56.362 117.158  0.00  0.00    -0.047 C 
ATOM      6  C   LIG d   1      -1.407  56.688 118.562  0.00  0.00     0.091 C 
ENDROOT
BRANCH   1   7
ATOM      7  O   LIG d   1       0.058  58.250 119.754  0.00  0.00    -0.368 OA
BRANCH   7   8
ATOM      8  C   LIG d   1      -0.320  59.646 119.840  0.00  0.00     0.119 C 
BRANCH   8   9
ATOM      9  C   LIG d   1       0.692  60.343 120.769  0.00  0.00     0.028 C 
ATOM     10  C   LIG d   1       0.150  61.663 121.343  0.00  0.00     0.006 C 
ENDBRANCH   8   9
BRANCH   8  11
ATOM     11  C   LIG d   1      -1.680  59.815 120.522  0.00  0.00     0.028 C 
ATOM     12  C   LIG d   1      -2.833  59.981 119.520  0.00  0.00     0.006 C 
ENDBRANCH   8  11
ENDBRANCH   7   8
ENDBRANCH   1   7
BRANCH   6  13
ATOM     13  N   LIG d   1      -1.012  55.467 119.312  0.00  0.00    -0.311 N 
ATOM     14  C   LIG d   1      -1.822  54.831 120.156  0.00  0.00     0.210 C 
ATOM     15  C   LIG d   1      -1.210  53.605 120.840  0.00  0.00     0.109 C 
ATOM     16  O   LIG d   1      -3.001  55.146 120.378  0.00  0.00    -0.276 OA
ATOM     17  H   LIG d   1      -0.082  55.124 119.168  0.00  0.00     0.149 HD
ENDBRANCH   6  13
BRANCH   5  18
ATOM     18  N   LIG d   1      -3.216  55.582 117.199  0.00  0.00     0.381 N 
ATOM     19  H   LIG d   1      -3.006  54.604 117.163  0.00  0.00    -0.090 HD
ATOM     20  H   LIG d   1      -3.772  55.815 116.396  0.00  0.00    -0.090 HD
ATOM     21  H   LIG d   1      -3.720  55.790 118.033  0.00  0.00    -0.090 HD
ENDBRANCH   5  18
BRANCH   3  22
ATOM     22  C   LIG d   1      -1.046  59.434 115.357  0.00  0.00     0.382 C 
ATOM     23  O   LIG d   1       0.011  60.094 115.215  0.00  0.00    -0.241 OA
ATOM     24  O   LIG d   1      -1.986  59.599 114.556  0.00  0.00    -0.241 OA
ENDBRANCH   3  22
TORSDOF 7
ENDMDL
MODEL 4
REMARK VINA RESULT:      -5.0     17.839     20.171
REMARK  7 active torsions:
REMARK  status: ('A' for Active; 'I' for Inactive)
REMARK    1  A    between atoms: C_2  and  C_3 
REMARK    2  A    between atoms: C_3  and  O_6 
REMARK    3  A    between atoms: C_3  and  C_4 
REMARK    4  A    between atoms: C_7  and  O_6 
REMARK    5  A    between atoms: C_9  and  C_10 
REMARK    6  A    between atoms: N_15  and  C_14 
REMARK    7  A    between atoms: N_20  and  C_19 
REMARK       I    between atoms: C_22  and  N_20 
ROOT
ATOM      1  C   LIG d   1      -9.034  75.227 118.838  0.00  0.00     0.161 C 
ATOM      2  C   LIG d   1     -10.433  75.335 118.777  0.00  0.00     0.016 C 
ATOM      3  C   LIG d   1     -11.141  76.501 119.147  0.00  0.00     0.038 C 
ATOM      4  C   LIG d   1     -10.483  77.699 119.463  0.00  0.00     0.028 C 
ATOM      5  C   LIG d   1      -9.081  77.489 120.026  0.00  0.00    -0.047 C 
ATOM      6  C   LIG d   1      -8.293  76.559 119.075  0.00  0.00     0.091 C 
ENDROOT
BRANCH   1   7
ATOM      7  O   LIG d   1      -8.541  74.584 117.647  0.00  0.00    -0.368 OA
BRANCH   7   8
ATOM      8  C   LIG d   1      -8.279  73.163 117.751  0.00  0.00     0.119 C 
BRANCH   8   9
ATOM      9  C   LIG d   1      -7.121  72.833 116.789  0.00  0.00     0.028 C 
ATOM     10  C   LIG d   1      -6.314  74.081 116.393  0.00  0.00     0.006 C 
ENDBRANCH   8   9
BRANCH   8  11
ATOM     11  C   LIG d   1      -9.469  72.338 117.252  0.00  0.00     0.028 C 
ATOM     12  C   LIG d   1      -9.042  71.029 116.570  0.00  0.00     0.006 C 
ENDBRANCH   8  11
ENDBRANCH   7   8
ENDBRANCH   1   7
BRANCH   6  13
ATOM     13  N   LIG d   1      -6.938  76.235 119.594  0.00  0.00    -0.311 N 
ATOM     14  C   LIG d   1      -5.812  76.603 118.985  0.00  0.00     0.210 C 
ATOM     15  C   LIG d   1      -4.524  76.148 119.678  0.00  0.00     0.109 C 
ATOM     16  O   LIG d   1      -5.758  77.291 117.954  0.00  0.00    -0.276 OA
ATOM     17  H   LIG d   1      -6.890  75.706 120.442  0.00  0.00     0.149 HD
ENDBRANCH   6  13
BRANCH   5  18
ATOM     18  N   LIG d   1      -8.460  78.818 120.181  0.00  0.00     0.381 N 
ATOM     19  H   LIG d   1      -7.766  78.953 119.472  0.00  0.00    -0.090 HD
ATOM     20  H   LIG d   1      -8.007  78.863 121.077  0.00  0.00    -0.090 HD
ATOM     21  H   LIG d   1      -9.154  79.529 120.116  0.00  0.00    -0.090 HD
ENDBRANCH   5  18
BRANCH   3  22
ATOM     22  C   LIG d   1     -12.524  76.465 119.242  0.00  0.00     0.382 C 
ATOM     23  O   LIG d   1     -13.214  76.168 118.237  0.00  0.00    -0.241 OA
ATOM     24  O   LIG d   1     -13.092  76.769 120.308  0.00  0.00    -0.241 OA
ENDBRANCH   3  22
TORSDOF 7
ENDMDL
MODEL 5
REMARK VINA RESULT:      -4.9     16.461     18.781
REMARK  7 active torsions:
REMARK  status: ('A' for Active; 'I' for Inactive)
REMARK    1  A    between atoms: C_2  and  C_3 
REMARK    2  A    between atoms: C_3  and  O_6 
REMARK    3  A    between atoms: C_3  and  C_4 
REMARK    4  A    between atoms: C_7  and  O_6 
REMARK    5  A    between atoms: C_9  and  C_10 
REMARK    6  A    between atoms: N_15  and  C_14 
REMARK    7  A    between atoms: N_20  and  C_19 
REMARK       I    between atoms: C_22  and  N_20 
ROOT
ATOM      1  C   LIG d   1      -6.432  74.688 117.222  0.00  0.00     0.161 C 
ATOM      2  C   LIG d   1      -6.931  73.451 116.781  0.00  0.00     0.016 C 
ATOM      3  C   LIG d   1      -8.139  72.887 117.251  0.00  0.00     0.038 C 
ATOM      4  C   LIG d   1      -9.013  73.597 118.089  0.00  0.00     0.028 C 
ATOM      5  C   LIG d   1      -8.310  74.637 118.955  0.00  0.00    -0.047 C 
ATOM      6  C   LIG d   1      -7.426  75.528 118.052  0.00  0.00     0.091 C 
ENDROOT
BRANCH   1   7
ATOM      7  O   LIG d   1      -5.950  75.450 116.098  0.00  0.00    -0.368 OA
BRANCH   7   8
ATOM      8  C   LIG d   1      -4.522  75.693 116.058  0.00  0.00     0.119 C 
BRANCH   8   9
ATOM      9  C   LIG d   1      -3.997  75.147 114.716  0.00  0.00     0.028 C 
ATOM     10  C   LIG d   1      -2.492  74.830 114.760  0.00  0.00     0.006 C 
ENDBRANCH   8   9
BRANCH   8  11
ATOM     11  C   LIG d   1      -3.790  74.890 117.137  0.00  0.00     0.028 C 
ATOM     12  C   LIG d   1      -3.141  75.783 118.207  0.00  0.00     0.006 C 
ENDBRANCH   8  11
ENDBRANCH   7   8
ENDBRANCH   1   7
BRANCH   6  13
ATOM     13  N   LIG d   1      -6.638  76.519 118.830  0.00  0.00    -0.311 N 
ATOM     14  C   LIG d   1      -6.505  77.794 118.471  0.00  0.00     0.210 C 
ATOM     15  C   LIG d   1      -5.633  78.641 119.403  0.00  0.00     0.109 C 
ATOM     16  O   LIG d   1      -7.051  78.312 117.485  0.00  0.00    -0.276 OA
ATOM     17  H   LIG d   1      -6.186  76.191 119.661  0.00  0.00     0.149 HD
ENDBRANCH   6  13
BRANCH   5  18
ATOM     18  N   LIG d   1      -9.351  75.395 119.674  0.00  0.00     0.381 N 
ATOM     19  H   LIG d   1     -10.238  74.947 119.557  0.00  0.00    -0.090 HD
ATOM     20  H   LIG d   1      -9.410  76.318 119.281  0.00  0.00    -0.090 HD
ATOM     21  H   LIG d   1      -9.124  75.452 120.642  0.00  0.00    -0.090 HD
ENDBRANCH   5  18
BRANCH   3  22
ATOM     22  C   LIG d   1      -8.465  71.582 116.915  0.00  0.00     0.382 C 
ATOM     23  O   LIG d   1      -9.285  70.940 117.615  0.00  0.00    -0.241 OA
ATOM     24  O   LIG d   1      -7.915  71.023 115.947  0.00  0.00    -0.241 OA
ENDBRANCH   3  22
TORSDOF 7
ENDMDL
MODEL 6
REMARK VINA RESULT:      -4.9      3.913      6.099
REMARK  7 active torsions:
REMARK  status: ('A' for Active; 'I' for Inactive)
REMARK    1  A    between atoms: C_2  and  C_3 
REMARK    2  A    between atoms: C_3  and  O_6 
REMARK    3  A    between atoms: C_3  and  C_4 
REMARK    4  A    between atoms: C_7  and  O_6 
REMARK    5  A    between atoms: C_9  and  C_10 
REMARK    6  A    between atoms: N_15  and  C_14 
REMARK    7  A    between atoms: N_20  and  C_19 
REMARK       I    between atoms: C_22  and  N_20 
ROOT
ATOM      1  C   LIG d   1      -0.697  60.669 119.308  0.00  0.00     0.161 C 
ATOM      2  C   LIG d   1      -2.013  60.256 119.043  0.00  0.00     0.016 C 
ATOM      3  C   LIG d   1      -2.339  58.986 118.513  0.00  0.00     0.038 C 
ATOM      4  C   LIG d   1      -1.374  57.981 118.353  0.00  0.00     0.028 C 
ATOM      5  C   LIG d   1       0.035  58.522 118.132  0.00  0.00    -0.047 C 
ATOM      6  C   LIG d   1       0.359  59.546 119.244  0.00  0.00     0.091 C 
ENDROOT
BRANCH   1   7
ATOM      7  O   LIG d   1      -0.642  61.336 120.584  0.00  0.00    -0.368 OA
BRANCH   7   8
ATOM      8  C   LIG d   1      -0.469  60.483 121.742  0.00  0.00     0.119 C 
BRANCH   8   9
ATOM      9  C   LIG d   1      -1.770  60.551 122.565  0.00  0.00     0.028 C 
ATOM     10  C   LIG d   1      -1.818  61.782 123.487  0.00  0.00     0.006 C 
ENDBRANCH   8   9
BRANCH   8  11
ATOM     11  C   LIG d   1       0.626  61.017 122.670  0.00  0.00     0.028 C 
ATOM     12  C   LIG d   1       1.456  62.139 122.027  0.00  0.00     0.006 C 
ENDBRANCH   8  11
ENDBRANCH   7   8
ENDBRANCH   1   7
BRANCH   6  13
ATOM     13  N   LIG d   1       1.687  60.186 119.055  0.00  0.00    -0.311 N 
ATOM     14  C   LIG d   1       2.804  59.738 119.624  0.00  0.00     0.210 C 
ATOM     15  C   LIG d   1       4.061  60.557 119.314  0.00  0.00     0.109 C 
ATOM     16  O   LIG d   1       2.880  58.721 120.330  0.00  0.00    -0.276 OA
ATOM     17  H   LIG d   1       1.722  60.999 118.471  0.00  0.00     0.149 HD
ENDBRANCH   6  13
BRANCH   5  18
ATOM     18  N   LIG d   1       0.957  57.371 118.119  0.00  0.00     0.381 N 
ATOM     19  H   LIG d   1       1.899  57.693 118.018  0.00  0.00    -0.090 HD
ATOM     20  H   LIG d   1       0.738  56.787 117.331  0.00  0.00    -0.090 HD
ATOM     21  H   LIG d   1       0.865  56.850 118.963  0.00  0.00    -0.090 HD
ENDBRANCH   5  18
BRANCH   3  22
ATOM     22  C   LIG d   1      -3.636  58.726 118.100  0.00  0.00     0.382 C 
ATOM     23  O   LIG d   1      -4.302  59.620 117.523  0.00  0.00    -0.241 OA
ATOM     24  O   LIG d   1      -4.165  57.624 118.336  0.00  0.00    -0.241 OA
ENDBRANCH   3  22
TORSDOF 7
ENDMDL
MODEL 7
REMARK VINA RESULT:      -4.8     17.362     19.771
REMARK  7 active torsions:
REMARK  status: ('A' for Active; 'I' for Inactive)
REMARK    1  A    between atoms: C_2  and  C_3 
REMARK    2  A    between atoms: C_3  and  O_6 
REMARK    3  A    between atoms: C_3  and  C_4 
REMARK    4  A    between atoms: C_7  and  O_6 
REMARK    5  A    between atoms: C_9  and  C_10 
REMARK    6  A    between atoms: N_15  and  C_14 
REMARK    7  A    between atoms: N_20  and  C_19 
REMARK       I    between atoms: C_22  and  N_20 
ROOT
ATOM      1  C   LIG d   1      -6.799  75.569 117.103  0.00  0.00     0.161 C 
ATOM      2  C   LIG d   1      -5.635  74.943 116.628  0.00  0.00     0.016 C 
ATOM      3  C   LIG d   1      -4.402  75.615 116.461  0.00  0.00     0.038 C 
ATOM      4  C   LIG d   1      -4.210  76.931 116.905  0.00  0.00     0.028 C 
ATOM      5  C   LIG d   1      -5.492  77.757 116.925  0.00  0.00    -0.047 C 
ATOM      6  C   LIG d   1      -6.579  76.976 117.697  0.00  0.00     0.091 C 
ENDROOT
BRANCH   1   7
ATOM      7  O   LIG d   1      -7.455  74.717 118.063  0.00  0.00    -0.368 OA
BRANCH   7   8
ATOM      8  C   LIG d   1      -8.601  73.975 117.578  0.00  0.00     0.119 C 
BRANCH   8   9
ATOM      9  C   LIG d   1      -9.815  74.387 118.432  0.00  0.00     0.028 C 
ATOM     10  C   LIG d   1     -10.851  75.192 117.629  0.00  0.00     0.006 C 
ENDBRANCH   8   9
BRANCH   8  11
ATOM     11  C   LIG d   1      -8.431  72.471 117.814  0.00  0.00     0.028 C 
ATOM     12  C   LIG d   1      -9.461  71.627 117.047  0.00  0.00     0.006 C 
ENDBRANCH   8  11
ENDBRANCH   7   8
ENDBRANCH   1   7
BRANCH   6  13
ATOM     13  N   LIG d   1      -7.891  77.676 117.692  0.00  0.00    -0.311 N 
ATOM     14  C   LIG d   1      -8.286  78.500 118.662  0.00  0.00     0.210 C 
ATOM     15  C   LIG d   1      -9.682  79.101 118.470  0.00  0.00     0.109 C 
ATOM     16  O   LIG d   1      -7.600  78.814 119.646  0.00  0.00    -0.276 OA
ATOM     17  H   LIG d   1      -8.498  77.502 116.915  0.00  0.00     0.149 HD
ENDBRANCH   6  13
BRANCH   5  18
ATOM     18  N   LIG d   1      -5.172  79.061 117.537  0.00  0.00     0.381 N 
ATOM     19  H   LIG d   1      -4.265  79.025 117.957  0.00  0.00    -0.090 HD
ATOM     20  H   LIG d   1      -5.846  79.257 118.256  0.00  0.00    -0.090 HD
ATOM     21  H   LIG d   1      -5.197  79.778 116.845  0.00  0.00    -0.090 HD
ENDBRANCH   5  18
BRANCH   3  22
ATOM     22  C   LIG d   1      -3.357  74.980 115.808  0.00  0.00     0.382 C 
ATOM     23  O   LIG d   1      -3.369  74.877 114.557  0.00  0.00    -0.241 OA
ATOM     24  O   LIG d   1      -2.423  74.471 116.456  0.00  0.00    -0.241 OA
ENDBRANCH   3  22
TORSDOF 7
ENDMDL
MODEL 8
REMARK VINA RESULT:      -4.8     16.466     18.733
REMARK  7 active torsions:
REMARK  status: ('A' for Active; 'I' for Inactive)
REMARK    1  A    between atoms: C_2  and  C_3 
REMARK    2  A    between atoms: C_3  and  O_6 
REMARK    3  A    between atoms: C_3  and  C_4 
REMARK    4  A    between atoms: C_7  and  O_6 
REMARK    5  A    between atoms: C_9  and  C_10 
REMARK    6  A    between atoms: N_15  and  C_14 
REMARK    7  A    between atoms: N_20  and  C_19 
REMARK       I    between atoms: C_22  and  N_20 
ROOT
ATOM      1  C   LIG d   1      -4.518  75.032 116.451  0.00  0.00     0.161 C 
ATOM      2  C   LIG d   1      -4.010  76.342 116.453  0.00  0.00     0.016 C 
ATOM      3  C   LIG d   1      -4.815  77.488 116.648  0.00  0.00     0.038 C 
ATOM      4  C   LIG d   1      -6.168  77.392 117.006  0.00  0.00     0.028 C 
ATOM      5  C   LIG d   1      -6.834  76.110 116.519  0.00  0.00    -0.047 C 
ATOM      6  C   LIG d   1      -5.972  74.901 116.951  0.00  0.00     0.091 C 
ENDROOT
BRANCH   1   7
ATOM      7  O   LIG d   1      -3.648  74.169 117.210  0.00  0.00    -0.368 OA
BRANCH   7   8
ATOM      8  C   LIG d   1      -2.599  74.825 117.963  0.00  0.00     0.119 C 
BRANCH   8   9
ATOM      9  C   LIG d   1      -1.277  74.102 117.642  0.00  0.00     0.028 C 
ATOM     10  C   LIG d   1      -0.800  74.361 116.204  0.00  0.00     0.006 C 
ENDBRANCH   8   9
BRANCH   8  11
ATOM     11  C   LIG d   1      -2.802  74.649 119.471  0.00  0.00     0.028 C 
ATOM     12  C   LIG d   1      -3.483  75.861 120.127  0.00  0.00     0.006 C 
ENDBRANCH   8  11
ENDBRANCH   7   8
ENDBRANCH   1   7
BRANCH   6  13
ATOM     13  N   LIG d   1      -6.509  73.612 116.442  0.00  0.00    -0.311 N 
ATOM     14  C   LIG d   1      -7.479  72.931 117.049  0.00  0.00     0.210 C 
ATOM     15  C   LIG d   1      -7.869  71.615 116.368  0.00  0.00     0.109 C 
ATOM     16  O   LIG d   1      -8.075  73.307 118.070  0.00  0.00    -0.276 OA
ATOM     17  H   LIG d   1      -6.104  73.250 115.601  0.00  0.00     0.149 HD
ENDBRANCH   6  13
BRANCH   5  18
ATOM     18  N   LIG d   1      -8.198  76.077 117.078  0.00  0.00     0.381 N 
ATOM     19  H   LIG d   1      -8.521  75.131 117.129  0.00  0.00    -0.090 HD
ATOM     20  H   LIG d   1      -8.813  76.587 116.468  0.00  0.00    -0.090 HD
ATOM     21  H   LIG d   1      -8.205  76.486 117.986  0.00  0.00    -0.090 HD
ENDBRANCH   5  18
BRANCH   3  22
ATOM     22  C   LIG d   1      -4.275  78.749 116.444  0.00  0.00     0.382 C 
ATOM     23  O   LIG d   1      -3.637  78.996 115.392  0.00  0.00    -0.241 OA
ATOM     24  O   LIG d   1      -4.379  79.629 117.319  0.00  0.00    -0.241 OA
ENDBRANCH   3  22
TORSDOF 7
ENDMDL
MODEL 9
REMARK VINA RESULT:      -4.8     17.659     20.356
REMARK  7 active torsions:
REMARK  status: ('A' for Active; 'I' for Inactive)
REMARK    1  A    between atoms: C_2  and  C_3 
REMARK    2  A    between atoms: C_3  and  O_6 
REMARK    3  A    between atoms: C_3  and  C_4 
REMARK    4  A    between atoms: C_7  and  O_6 
REMARK    5  A    between atoms: C_9  and  C_10 
REMARK    6  A    between atoms: N_15  and  C_14 
REMARK    7  A    between atoms: N_20  and  C_19 
REMARK       I    between atoms: C_22  and  N_20 
ROOT
ATOM      1  C   LIG d   1      -7.449  76.428 117.132  0.00  0.00     0.161 C 
ATOM      2  C   LIG d   1      -8.785  76.338 117.558  0.00  0.00     0.016 C 
ATOM      3  C   LIG d   1      -9.442  75.110 117.802  0.00  0.00     0.038 C 
ATOM      4  C   LIG d   1      -8.757  73.886 117.784  0.00  0.00     0.028 C 
ATOM      5  C   LIG d   1      -7.537  73.888 116.869  0.00  0.00    -0.047 C 
ATOM      6  C   LIG d   1      -6.653  75.109 117.214  0.00  0.00     0.091 C 
ENDROOT
BRANCH   1   7
ATOM      7  O   LIG d   1      -6.772  77.468 117.866  0.00  0.00    -0.368 OA
BRANCH   7   8
ATOM      8  C   LIG d   1      -7.586  78.226 118.794  0.00  0.00     0.119 C 
BRANCH   8   9
ATOM      9  C   LIG d   1      -7.587  79.692 118.318  0.00  0.00     0.028 C 
ATOM     10  C   LIG d   1      -9.007  80.226 118.066  0.00  0.00     0.006 C 
ENDBRANCH   8   9
BRANCH   8  11
ATOM     11  C   LIG d   1      -6.959  78.255 120.191  0.00  0.00     0.028 C 
ATOM     12  C   LIG d   1      -6.928  76.871 120.859  0.00  0.00     0.006 C 
ENDBRANCH   8  11
ENDBRANCH   7   8
ENDBRANCH   1   7
BRANCH   6  13
ATOM     13  N   LIG d   1      -5.481  75.234 116.309  0.00  0.00    -0.311 N 
ATOM     14  C   LIG d   1      -4.290  74.702 116.575  0.00  0.00     0.210 C 
ATOM     15  C   LIG d   1      -3.213  74.966 115.518  0.00  0.00     0.109 C 
ATOM     16  O   LIG d   1      -4.031  74.008 117.570  0.00  0.00    -0.276 OA
ATOM     17  H   LIG d   1      -5.611  75.754 115.463  0.00  0.00     0.149 HD
ENDBRANCH   6  13
BRANCH   5  18
ATOM     18  N   LIG d   1      -6.841  72.601 117.050  0.00  0.00     0.381 N 
ATOM     19  H   LIG d   1      -6.424  72.316 116.187  0.00  0.00    -0.090 HD
ATOM     20  H   LIG d   1      -7.512  71.904 117.322  0.00  0.00    -0.090 HD
ATOM     21  H   LIG d   1      -6.140  72.688 117.753  0.00  0.00    -0.090 HD
ENDBRANCH   5  18
BRANCH   3  22
ATOM     22  C   LIG d   1     -10.809  75.096 118.031  0.00  0.00     0.382 C 
ATOM     23  O   LIG d   1     -11.516  74.178 117.549  0.00  0.00    -0.241 OA
ATOM     24  O   LIG d   1     -11.352  76.013 118.676  0.00  0.00    -0.241 OA
ENDBRANCH   3  22
TORSDOF 7
ENDMDL
