MODEL 1
REMARK VINA RESULT:      -5.4      0.000      0.000
REMARK  7 active torsions:
REMARK  status: ('A' for Active; 'I' for Inactive)
REMARK    1  A    between atoms: C_2  and  C_3 
REMARK    2  A    between atoms: C_3  and  O_6 
REMARK    3  A    between atoms: C_3  and  C_4 
REMARK    4  A    between atoms: C_7  and  O_6 
REMARK    5  A    between atoms: C_9  and  C_10 
REMARK    6  A    between atoms: N_15  and  C_14 
REMARK    7  A    between atoms: N_20  and  C_19 
REMARK       I    between atoms: C_22  and  N_20 
ROOT
ATOM      1  C   LIG d   1       0.785  57.885 116.824  0.00  0.00     0.161 C 
ATOM      2  C   LIG d   1       0.041  58.996 117.255  0.00  0.00     0.016 C 
ATOM      3  C   LIG d   1      -1.372  59.012 117.312  0.00  0.00     0.038 C 
ATOM      4  C   LIG d   1      -2.136  57.859 117.082  0.00  0.00     0.028 C 
ATOM      5  C   LIG d   1      -1.457  56.856 116.156  0.00  0.00    -0.047 C 
ATOM      6  C   LIG d   1      -0.027  56.581 116.675  0.00  0.00     0.091 C 
ENDROOT
BRANCH   1   7
ATOM      7  O   LIG d   1       1.908  57.678 117.702  0.00  0.00    -0.368 OA
BRANCH   7   8
ATOM      8  C   LIG d   1       1.639  56.936 118.917  0.00  0.00     0.119 C 
BRANCH   8   9
ATOM      9  C   LIG d   1       1.733  57.926 120.095  0.00  0.00     0.028 C 
ATOM     10  C   LIG d   1       2.947  58.862 119.979  0.00  0.00     0.006 C 
ENDBRANCH   8   9
BRANCH   8  11
ATOM     11  C   LIG d   1       2.724  55.888 119.182  0.00  0.00     0.028 C 
ATOM     12  C   LIG d   1       3.653  55.674 117.976  0.00  0.00     0.006 C 
ENDBRANCH   8  11
ENDBRANCH   7   8
ENDBRANCH   1   7
BRANCH   6  13
ATOM     13  N   LIG d   1       0.737  55.675 115.780  0.00  0.00    -0.311 N 
ATOM     14  C   LIG d   1       0.826  54.360 115.971  0.00  0.00     0.210 C 
ATOM     15  C   LIG d   1       1.681  53.613 114.941  0.00  0.00     0.109 C 
ATOM     16  O   LIG d   1       0.253  53.736 116.876  0.00  0.00    -0.276 OA
ATOM     17  H   LIG d   1       1.208  56.093 115.001  0.00  0.00     0.149 HD
ENDBRANCH   6  13
BRANCH   5  18
ATOM     18  N   LIG d   1      -2.300  55.646 116.114  0.00  0.00     0.381 N 
ATOM     19  H   LIG d   1      -1.903  54.937 116.697  0.00  0.00    -0.090 HD
ATOM     20  H   LIG d   1      -2.325  55.301 115.170  0.00  0.00    -0.090 HD
ATOM     21  H   LIG d   1      -3.222  55.863 116.421  0.00  0.00    -0.090 HD
ENDBRANCH   5  18
BRANCH   3  22
ATOM     22  C   LIG d   1      -2.036  60.204 117.562  0.00  0.00     0.382 C 
ATOM     23  O   LIG d   1      -3.289  60.226 117.605  0.00  0.00    -0.241 OA
ATOM     24  O   LIG d   1      -1.398  61.265 117.701  0.00  0.00    -0.241 OA
ENDBRANCH   3  22
TORSDOF 7
ENDMDL
MODEL 2
REMARK VINA RESULT:      -5.1     33.878     35.855
REMARK  7 active torsions:
REMARK  status: ('A' for Active; 'I' for Inactive)
REMARK    1  A    between atoms: C_2  and  C_3 
REMARK    2  A    between atoms: C_3  and  O_6 
REMARK    3  A    between atoms: C_3  and  C_4 
REMARK    4  A    between atoms: C_7  and  O_6 
REMARK    5  A    between atoms: C_9  and  C_10 
REMARK    6  A    between atoms: N_15  and  C_14 
REMARK    7  A    between atoms: N_20  and  C_19 
REMARK       I    between atoms: C_22  and  N_20 
ROOT
ATOM      1  C   LIG d   1      -6.516  91.993 118.750  0.00  0.00     0.161 C 
ATOM      2  C   LIG d   1      -5.617  92.307 119.783  0.00  0.00     0.016 C 
ATOM      3  C   LIG d   1      -4.253  91.935 119.767  0.00  0.00     0.038 C 
ATOM      4  C   LIG d   1      -3.656  91.351 118.639  0.00  0.00     0.028 C 
ATOM      5  C   LIG d   1      -4.635  90.562 117.776  0.00  0.00    -0.047 C 
ATOM      6  C   LIG d   1      -5.859  91.454 117.462  0.00  0.00     0.091 C 
ENDROOT
BRANCH   1   7
ATOM      7  O   LIG d   1      -7.337  93.139 118.451  0.00  0.00    -0.368 OA
BRANCH   7   8
ATOM      8  C   LIG d   1      -7.671  93.993 119.573  0.00  0.00     0.119 C 
BRANCH   8   9
ATOM      9  C   LIG d   1      -9.083  93.599 120.050  0.00  0.00     0.028 C 
ATOM     10  C   LIG d   1      -9.065  92.896 121.418  0.00  0.00     0.006 C 
ENDBRANCH   8   9
BRANCH   8  11
ATOM     11  C   LIG d   1      -7.783  95.459 119.144  0.00  0.00     0.028 C 
ATOM     12  C   LIG d   1      -9.099  95.766 118.412  0.00  0.00     0.006 C 
ENDBRANCH   8  11
ENDBRANCH   7   8
ENDBRANCH   1   7
BRANCH   6  13
ATOM     13  N   LIG d   1      -6.904  90.730 116.692  0.00  0.00    -0.311 N 
ATOM     14  C   LIG d   1      -6.952  90.710 115.361  0.00  0.00     0.210 C 
ATOM     15  C   LIG d   1      -8.124  89.921 114.769  0.00  0.00     0.109 C 
ATOM     16  O   LIG d   1      -6.117  91.243 114.615  0.00  0.00    -0.276 OA
ATOM     17  H   LIG d   1      -7.604  90.245 117.219  0.00  0.00     0.149 HD
ENDBRANCH   6  13
BRANCH   5  18
ATOM     18  N   LIG d   1      -3.912  90.125 116.567  0.00  0.00     0.381 N 
ATOM     19  H   LIG d   1      -2.953  90.402 116.628  0.00  0.00    -0.090 HD
ATOM     20  H   LIG d   1      -4.319  90.574 115.765  0.00  0.00    -0.090 HD
ATOM     21  H   LIG d   1      -3.975  89.136 116.471  0.00  0.00    -0.090 HD
ENDBRANCH   5  18
BRANCH   3  22
ATOM     22  C   LIG d   1      -3.479  92.112 120.904  0.00  0.00     0.382 C 
ATOM     23  O   LIG d   1      -3.281  93.266 121.355  0.00  0.00    -0.241 OA
ATOM     24  O   LIG d   1      -2.940  91.135 121.458  0.00  0.00    -0.241 OA
ENDBRANCH   3  22
TORSDOF 7
ENDMDL
MODEL 3
REMARK VINA RESULT:      -5.0      2.896      4.307
REMARK  7 active torsions:
REMARK  status: ('A' for Active; 'I' for Inactive)
REMARK    1  A    between atoms: C_2  and  C_3 
REMARK    2  A    between atoms: C_3  and  O_6 
REMARK    3  A    between atoms: C_3  and  C_4 
REMARK    4  A    between atoms: C_7  and  O_6 
REMARK    5  A    between atoms: C_9  and  C_10 
REMARK    6  A    between atoms: N_15  and  C_14 
REMARK    7  A    between atoms: N_20  and  C_19 
REMARK       I    between atoms: C_22  and  N_20 
ROOT
ATOM      1  C   LIG d   1      -0.130  56.910 118.281  0.00  0.00     0.161 C 
ATOM      2  C   LIG d   1      -0.031  57.406 116.971  0.00  0.00     0.016 C 
ATOM      3  C   LIG d   1      -0.405  58.720 116.605  0.00  0.00     0.038 C 
ATOM      4  C   LIG d   1      -0.764  59.681 117.561  0.00  0.00     0.028 C 
ATOM      5  C   LIG d   1      -1.361  59.081 118.830  0.00  0.00    -0.047 C 
ATOM      6  C   LIG d   1      -0.414  57.979 119.357  0.00  0.00     0.091 C 
ENDROOT
BRANCH   1   7
ATOM      7  O   LIG d   1       1.061  56.169 118.614  0.00  0.00    -0.368 OA
BRANCH   7   8
ATOM      8  C   LIG d   1       2.212  56.397 117.765  0.00  0.00     0.119 C 
BRANCH   8   9
ATOM      9  C   LIG d   1       2.919  55.042 117.570  0.00  0.00     0.028 C 
ATOM     10  C   LIG d   1       4.211  54.930 118.396  0.00  0.00     0.006 C 
ENDBRANCH   8   9
BRANCH   8  11
ATOM     11  C   LIG d   1       3.243  57.297 118.454  0.00  0.00     0.028 C 
ATOM     12  C   LIG d   1       3.376  58.673 117.783  0.00  0.00     0.006 C 
ENDBRANCH   8  11
ENDBRANCH   7   8
ENDBRANCH   1   7
BRANCH   6  13
ATOM     13  N   LIG d   1      -0.964  57.282 120.549  0.00  0.00    -0.311 N 
ATOM     14  C   LIG d   1      -0.674  57.632 121.801  0.00  0.00     0.210 C 
ATOM     15  C   LIG d   1      -1.332  56.769 122.882  0.00  0.00     0.109 C 
ATOM     16  O   LIG d   1       0.040  58.595 122.120  0.00  0.00    -0.276 OA
ATOM     17  H   LIG d   1      -1.577  56.509 120.383  0.00  0.00     0.149 HD
ENDBRANCH   6  13
BRANCH   5  18
ATOM     18  N   LIG d   1      -1.561  60.181 119.792  0.00  0.00     0.381 N 
ATOM     19  H   LIG d   1      -2.210  59.898 120.499  0.00  0.00    -0.090 HD
ATOM     20  H   LIG d   1      -1.949  60.971 119.307  0.00  0.00    -0.090 HD
ATOM     21  H   LIG d   1      -0.692  60.432 120.209  0.00  0.00    -0.090 HD
ENDBRANCH   5  18
BRANCH   3  22
ATOM     22  C   LIG d   1      -0.461  59.071 115.265  0.00  0.00     0.382 C 
ATOM     23  O   LIG d   1      -1.555  59.401 114.748  0.00  0.00    -0.241 OA
ATOM     24  O   LIG d   1       0.561  59.018 114.555  0.00  0.00    -0.241 OA
ENDBRANCH   3  22
TORSDOF 7
ENDMDL
MODEL 4
REMARK VINA RESULT:      -4.9     32.519     34.602
REMARK  7 active torsions:
REMARK  status: ('A' for Active; 'I' for Inactive)
REMARK    1  A    between atoms: C_2  and  C_3 
REMARK    2  A    between atoms: C_3  and  O_6 
REMARK    3  A    between atoms: C_3  and  C_4 
REMARK    4  A    between atoms: C_7  and  O_6 
REMARK    5  A    between atoms: C_9  and  C_10 
REMARK    6  A    between atoms: N_15  and  C_14 
REMARK    7  A    between atoms: N_20  and  C_19 
REMARK       I    between atoms: C_22  and  N_20 
ROOT
ATOM      1  C   LIG d   1      -3.732  90.936 117.892  0.00  0.00     0.161 C 
ATOM      2  C   LIG d   1      -4.189  90.398 116.678  0.00  0.00     0.016 C 
ATOM      3  C   LIG d   1      -5.529  90.496 116.238  0.00  0.00     0.038 C 
ATOM      4  C   LIG d   1      -6.477  91.276 116.917  0.00  0.00     0.028 C 
ATOM      5  C   LIG d   1      -6.188  91.418 118.408  0.00  0.00    -0.047 C 
ATOM      6  C   LIG d   1      -4.727  91.886 118.593  0.00  0.00     0.091 C 
ENDROOT
BRANCH   1   7
ATOM      7  O   LIG d   1      -2.467  91.597 117.689  0.00  0.00    -0.368 OA
BRANCH   7   8
ATOM      8  C   LIG d   1      -1.353  91.092 118.466  0.00  0.00     0.119 C 
BRANCH   8   9
ATOM      9  C   LIG d   1      -0.789  92.270 119.285  0.00  0.00     0.028 C 
ATOM     10  C   LIG d   1      -0.327  91.840 120.688  0.00  0.00     0.006 C 
ENDBRANCH   8   9
BRANCH   8  11
ATOM     11  C   LIG d   1      -0.203  90.640 117.561  0.00  0.00     0.028 C 
ATOM     12  C   LIG d   1      -0.399  89.217 117.015  0.00  0.00     0.006 C 
ENDBRANCH   8  11
ENDBRANCH   7   8
ENDBRANCH   1   7
BRANCH   6  13
ATOM     13  N   LIG d   1      -4.336  91.970 120.024  0.00  0.00    -0.311 N 
ATOM     14  C   LIG d   1      -4.384  93.097 120.733  0.00  0.00     0.210 C 
ATOM     15  C   LIG d   1      -3.917  92.967 122.186  0.00  0.00     0.109 C 
ATOM     16  O   LIG d   1      -4.798  94.184 120.304  0.00  0.00    -0.276 OA
ATOM     17  H   LIG d   1      -4.016  91.127 120.460  0.00  0.00     0.149 HD
ENDBRANCH   6  13
BRANCH   5  18
ATOM     18  N   LIG d   1      -7.173  92.365 118.964  0.00  0.00     0.381 N 
ATOM     19  H   LIG d   1      -7.691  91.923 119.697  0.00  0.00    -0.090 HD
ATOM     20  H   LIG d   1      -7.816  92.629 118.238  0.00  0.00    -0.090 HD
ATOM     21  H   LIG d   1      -6.709  93.173 119.316  0.00  0.00    -0.090 HD
ENDBRANCH   5  18
BRANCH   3  22
ATOM     22  C   LIG d   1      -5.942  89.776 115.127  0.00  0.00     0.382 C 
ATOM     23  O   LIG d   1      -5.149  88.984 114.563  0.00  0.00    -0.241 OA
ATOM     24  O   LIG d   1      -7.083  89.941 114.656  0.00  0.00    -0.241 OA
ENDBRANCH   3  22
TORSDOF 7
ENDMDL
MODEL 5
REMARK VINA RESULT:      -4.9     33.516     35.651
REMARK  7 active torsions:
REMARK  status: ('A' for Active; 'I' for Inactive)
REMARK    1  A    between atoms: C_2  and  C_3 
REMARK    2  A    between atoms: C_3  and  O_6 
REMARK    3  A    between atoms: C_3  and  C_4 
REMARK    4  A    between atoms: C_7  and  O_6 
REMARK    5  A    between atoms: C_9  and  C_10 
REMARK    6  A    between atoms: N_15  and  C_14 
REMARK    7  A    between atoms: N_20  and  C_19 
REMARK       I    between atoms: C_22  and  N_20 
ROOT
ATOM      1  C   LIG d   1      -5.934  92.118 118.551  0.00  0.00     0.161 C 
ATOM      2  C   LIG d   1      -6.663  91.506 117.517  0.00  0.00     0.016 C 
ATOM      3  C   LIG d   1      -6.075  90.675 116.537  0.00  0.00     0.038 C 
ATOM      4  C   LIG d   1      -4.732  90.274 116.613  0.00  0.00     0.028 C 
ATOM      5  C   LIG d   1      -3.844  91.270 117.350  0.00  0.00    -0.047 C 
ATOM      6  C   LIG d   1      -4.489  91.603 118.715  0.00  0.00     0.091 C 
ENDROOT
BRANCH   1   7
ATOM      7  O   LIG d   1      -6.653  91.996 119.794  0.00  0.00    -0.368 OA
BRANCH   7   8
ATOM      8  C   LIG d   1      -7.076  93.237 120.410  0.00  0.00     0.119 C 
BRANCH   8   9
ATOM      9  C   LIG d   1      -8.591  93.134 120.668  0.00  0.00     0.028 C 
ATOM     10  C   LIG d   1      -9.425  93.569 119.451  0.00  0.00     0.006 C 
ENDBRANCH   8   9
BRANCH   8  11
ATOM     11  C   LIG d   1      -6.907  94.420 119.453  0.00  0.00     0.028 C 
ATOM     12  C   LIG d   1      -6.023  95.535 120.033  0.00  0.00     0.006 C 
ENDBRANCH   8  11
ENDBRANCH   7   8
ENDBRANCH   1   7
BRANCH   6  13
ATOM     13  N   LIG d   1      -3.726  92.635 119.466  0.00  0.00    -0.311 N 
ATOM     14  C   LIG d   1      -3.271  92.453 120.704  0.00  0.00     0.210 C 
ATOM     15  C   LIG d   1      -2.528  93.652 121.302  0.00  0.00     0.109 C 
ATOM     16  O   LIG d   1      -3.385  91.402 121.353  0.00  0.00    -0.276 OA
ATOM     17  H   LIG d   1      -3.561  93.507 119.003  0.00  0.00     0.149 HD
ENDBRANCH   6  13
BRANCH   5  18
ATOM     18  N   LIG d   1      -2.505  90.665 117.476  0.00  0.00     0.381 N 
ATOM     19  H   LIG d   1      -2.509  89.981 118.206  0.00  0.00    -0.090 HD
ATOM     20  H   LIG d   1      -1.845  91.382 117.720  0.00  0.00    -0.090 HD
ATOM     21  H   LIG d   1      -2.240  90.240 116.614  0.00  0.00    -0.090 HD
ENDBRANCH   5  18
BRANCH   3  22
ATOM     22  C   LIG d   1      -6.823  90.268 115.443  0.00  0.00     0.382 C 
ATOM     23  O   LIG d   1      -6.298  89.553 114.555  0.00  0.00    -0.241 OA
ATOM     24  O   LIG d   1      -8.003  90.642 115.309  0.00  0.00    -0.241 OA
ENDBRANCH   3  22
TORSDOF 7
ENDMDL
MODEL 6
REMARK VINA RESULT:      -4.9      1.209      1.995
REMARK  7 active torsions:
REMARK  status: ('A' for Active; 'I' for Inactive)
REMARK    1  A    between atoms: C_2  and  C_3 
REMARK    2  A    between atoms: C_3  and  O_6 
REMARK    3  A    between atoms: C_3  and  C_4 
REMARK    4  A    between atoms: C_7  and  O_6 
REMARK    5  A    between atoms: C_9  and  C_10 
REMARK    6  A    between atoms: N_15  and  C_14 
REMARK    7  A    between atoms: N_20  and  C_19 
REMARK       I    between atoms: C_22  and  N_20 
ROOT
ATOM      1  C   LIG d   1       1.389  57.447 117.521  0.00  0.00     0.161 C 
ATOM      2  C   LIG d   1       0.841  58.599 118.109  0.00  0.00     0.016 C 
ATOM      3  C   LIG d   1      -0.521  58.958 117.996  0.00  0.00     0.038 C 
ATOM      4  C   LIG d   1      -1.467  58.103 117.410  0.00  0.00     0.028 C 
ATOM      5  C   LIG d   1      -0.871  57.168 116.362  0.00  0.00    -0.047 C 
ATOM      6  C   LIG d   1       0.351  56.445 116.972  0.00  0.00     0.091 C 
ENDROOT
BRANCH   1   7
ATOM      7  O   LIG d   1       2.270  56.793 118.456  0.00  0.00    -0.368 OA
BRANCH   7   8
ATOM      8  C   LIG d   1       3.689  56.936 118.202  0.00  0.00     0.119 C 
BRANCH   8   9
ATOM      9  C   LIG d   1       4.415  55.827 118.987  0.00  0.00     0.028 C 
ATOM     10  C   LIG d   1       4.153  54.428 118.404  0.00  0.00     0.006 C 
ENDBRANCH   8   9
BRANCH   8  11
ATOM     11  C   LIG d   1       4.227  58.253 118.769  0.00  0.00     0.028 C 
ATOM     12  C   LIG d   1       5.335  58.043 119.814  0.00  0.00     0.006 C 
ENDBRANCH   8  11
ENDBRANCH   7   8
ENDBRANCH   1   7
BRANCH   6  13
ATOM     13  N   LIG d   1       1.044  55.574 115.988  0.00  0.00    -0.311 N 
ATOM     14  C   LIG d   1       1.188  54.259 116.145  0.00  0.00     0.210 C 
ATOM     15  C   LIG d   1       1.952  53.553 115.021  0.00  0.00     0.109 C 
ATOM     16  O   LIG d   1       0.727  53.606 117.093  0.00  0.00    -0.276 OA
ATOM     17  H   LIG d   1       1.422  56.017 115.173  0.00  0.00     0.149 HD
ENDBRANCH   6  13
BRANCH   5  18
ATOM     18  N   LIG d   1      -1.936  56.242 115.934  0.00  0.00     0.381 N 
ATOM     19  H   LIG d   1      -1.625  55.708 115.148  0.00  0.00    -0.090 HD
ATOM     20  H   LIG d   1      -2.739  56.777 115.654  0.00  0.00    -0.090 HD
ATOM     21  H   LIG d   1      -2.179  55.632 116.684  0.00  0.00    -0.090 HD
ENDBRANCH   5  18
BRANCH   3  22
ATOM     22  C   LIG d   1      -0.943  60.202 118.437  0.00  0.00     0.382 C 
ATOM     23  O   LIG d   1      -1.404  61.035 117.619  0.00  0.00    -0.241 OA
ATOM     24  O   LIG d   1      -0.828  60.520 119.636  0.00  0.00    -0.241 OA
ENDBRANCH   3  22
TORSDOF 7
ENDMDL
MODEL 7
REMARK VINA RESULT:      -4.8     19.934     23.075
REMARK  7 active torsions:
REMARK  status: ('A' for Active; 'I' for Inactive)
REMARK    1  A    between atoms: C_2  and  C_3 
REMARK    2  A    between atoms: C_3  and  O_6 
REMARK    3  A    between atoms: C_3  and  C_4 
REMARK    4  A    between atoms: C_7  and  O_6 
REMARK    5  A    between atoms: C_9  and  C_10 
REMARK    6  A    between atoms: N_15  and  C_14 
REMARK    7  A    between atoms: N_20  and  C_19 
REMARK       I    between atoms: C_22  and  N_20 
ROOT
ATOM      1  C   LIG d   1      -6.029  78.821 117.539  0.00  0.00     0.161 C 
ATOM      2  C   LIG d   1      -7.401  78.605 117.751  0.00  0.00     0.016 C 
ATOM      3  C   LIG d   1      -8.320  79.644 118.020  0.00  0.00     0.038 C 
ATOM      4  C   LIG d   1      -7.953  80.996 117.944  0.00  0.00     0.028 C 
ATOM      5  C   LIG d   1      -6.476  81.240 118.231  0.00  0.00    -0.047 C 
ATOM      6  C   LIG d   1      -5.630  80.298 117.342  0.00  0.00     0.091 C 
ENDROOT
BRANCH   1   7
ATOM      7  O   LIG d   1      -5.576  78.027 116.424  0.00  0.00    -0.368 OA
BRANCH   7   8
ATOM      8  C   LIG d   1      -5.416  76.609 116.674  0.00  0.00     0.119 C 
BRANCH   8   9
ATOM      9  C   LIG d   1      -3.925  76.271 116.483  0.00  0.00     0.028 C 
ATOM     10  C   LIG d   1      -3.222  77.242 115.519  0.00  0.00     0.006 C 
ENDBRANCH   8   9
BRANCH   8  11
ATOM     11  C   LIG d   1      -6.160  75.772 115.630  0.00  0.00     0.028 C 
ATOM     12  C   LIG d   1      -5.709  74.302 115.614  0.00  0.00     0.006 C 
ENDBRANCH   8  11
ENDBRANCH   7   8
ENDBRANCH   1   7
BRANCH   6  13
ATOM     13  N   LIG d   1      -4.175  80.412 117.620  0.00  0.00    -0.311 N 
ATOM     14  C   LIG d   1      -3.269  80.686 116.683  0.00  0.00     0.210 C 
ATOM     15  C   LIG d   1      -1.821  80.738 117.180  0.00  0.00     0.109 C 
ATOM     16  O   LIG d   1      -3.530  80.923 115.494  0.00  0.00    -0.276 OA
ATOM     17  H   LIG d   1      -3.878  80.266 118.565  0.00  0.00     0.149 HD
ENDBRANCH   6  13
BRANCH   5  18
ATOM     18  N   LIG d   1      -6.203  82.668 117.983  0.00  0.00     0.381 N 
ATOM     19  H   LIG d   1      -7.010  83.102 117.581  0.00  0.00    -0.090 HD
ATOM     20  H   LIG d   1      -5.444  82.745 117.328  0.00  0.00    -0.090 HD
ATOM     21  H   LIG d   1      -5.963  83.122 118.836  0.00  0.00    -0.090 HD
ENDBRANCH   5  18
BRANCH   3  22
ATOM     22  C   LIG d   1      -9.615  79.334 118.407  0.00  0.00     0.382 C 
ATOM     23  O   LIG d   1     -10.284  80.159 119.076  0.00  0.00    -0.241 OA
ATOM     24  O   LIG d   1     -10.107  78.222 118.136  0.00  0.00    -0.241 OA
ENDBRANCH   3  22
TORSDOF 7
ENDMDL
MODEL 8
REMARK VINA RESULT:      -4.8      3.020      5.241
REMARK  7 active torsions:
REMARK  status: ('A' for Active; 'I' for Inactive)
REMARK    1  A    between atoms: C_2  and  C_3 
REMARK    2  A    between atoms: C_3  and  O_6 
REMARK    3  A    between atoms: C_3  and  C_4 
REMARK    4  A    between atoms: C_7  and  O_6 
REMARK    5  A    between atoms: C_9  and  C_10 
REMARK    6  A    between atoms: N_15  and  C_14 
REMARK    7  A    between atoms: N_20  and  C_19 
REMARK       I    between atoms: C_22  and  N_20 
ROOT
ATOM      1  C   LIG d   1      -0.059  58.873 119.539  0.00  0.00     0.161 C 
ATOM      2  C   LIG d   1      -0.488  59.859 120.443  0.00  0.00     0.016 C 
ATOM      3  C   LIG d   1       0.376  60.504 121.358  0.00  0.00     0.038 C 
ATOM      4  C   LIG d   1       1.765  60.314 121.327  0.00  0.00     0.028 C 
ATOM      5  C   LIG d   1       2.178  58.955 120.771  0.00  0.00    -0.047 C 
ATOM      6  C   LIG d   1       1.472  58.732 119.414  0.00  0.00     0.091 C 
ENDROOT
BRANCH   1   7
ATOM      7  O   LIG d   1      -0.648  59.108 118.244  0.00  0.00    -0.368 OA
BRANCH   7   8
ATOM      8  C   LIG d   1      -1.545  58.080 117.756  0.00  0.00     0.119 C 
BRANCH   8   9
ATOM      9  C   LIG d   1      -1.084  57.700 116.336  0.00  0.00     0.028 C 
ATOM     10  C   LIG d   1      -0.041  58.681 115.774  0.00  0.00     0.006 C 
ENDBRANCH   8   9
BRANCH   8  11
ATOM     11  C   LIG d   1      -2.969  58.617 117.589  0.00  0.00     0.028 C 
ATOM     12  C   LIG d   1      -3.031  60.153 117.591  0.00  0.00     0.006 C 
ENDBRANCH   8  11
ENDBRANCH   7   8
ENDBRANCH   1   7
BRANCH   6  13
ATOM     13  N   LIG d   1       1.755  57.390 118.842  0.00  0.00    -0.311 N 
ATOM     14  C   LIG d   1       2.767  57.146 118.010  0.00  0.00     0.210 C 
ATOM     15  C   LIG d   1       2.867  55.698 117.521  0.00  0.00     0.109 C 
ATOM     16  O   LIG d   1       3.609  57.985 117.656  0.00  0.00    -0.276 OA
ATOM     17  H   LIG d   1       1.140  56.644 119.101  0.00  0.00     0.149 HD
ENDBRANCH   6  13
BRANCH   5  18
ATOM     18  N   LIG d   1       3.649  58.944 120.667  0.00  0.00     0.381 N 
ATOM     19  H   LIG d   1       4.007  58.074 121.008  0.00  0.00    -0.090 HD
ATOM     20  H   LIG d   1       4.021  59.683 121.238  0.00  0.00    -0.090 HD
ATOM     21  H   LIG d   1       3.925  59.076 119.719  0.00  0.00    -0.090 HD
ENDBRANCH   5  18
BRANCH   3  22
ATOM     22  C   LIG d   1      -0.155  61.322 122.344  0.00  0.00     0.382 C 
ATOM     23  O   LIG d   1       0.220  62.515 122.439  0.00  0.00    -0.241 OA
ATOM     24  O   LIG d   1      -0.972  60.869 123.168  0.00  0.00    -0.241 OA
ENDBRANCH   3  22
TORSDOF 7
ENDMDL
MODEL 9
REMARK VINA RESULT:      -4.8     34.191     36.094
REMARK  7 active torsions:
REMARK  status: ('A' for Active; 'I' for Inactive)
REMARK    1  A    between atoms: C_2  and  C_3 
REMARK    2  A    between atoms: C_3  and  O_6 
REMARK    3  A    between atoms: C_3  and  C_4 
REMARK    4  A    between atoms: C_7  and  O_6 
REMARK    5  A    between atoms: C_9  and  C_10 
REMARK    6  A    between atoms: N_15  and  C_14 
REMARK    7  A    between atoms: N_20  and  C_19 
REMARK       I    between atoms: C_22  and  N_20 
ROOT
ATOM      1  C   LIG d   1      -6.022  92.171 119.226  0.00  0.00     0.161 C 
ATOM      2  C   LIG d   1      -5.903  91.290 118.138  0.00  0.00     0.016 C 
ATOM      3  C   LIG d   1      -6.684  91.393 116.964  0.00  0.00     0.038 C 
ATOM      4  C   LIG d   1      -7.537  92.483 116.735  0.00  0.00     0.028 C 
ATOM      5  C   LIG d   1      -8.062  93.122 118.016  0.00  0.00    -0.047 C 
ATOM      6  C   LIG d   1      -6.868  93.431 118.948  0.00  0.00     0.091 C 
ENDROOT
BRANCH   1   7
ATOM      7  O   LIG d   1      -4.712  92.541 119.700  0.00  0.00    -0.368 OA
BRANCH   7   8
ATOM      8  C   LIG d   1      -3.691  91.517 119.616  0.00  0.00     0.119 C 
BRANCH   8   9
ATOM      9  C   LIG d   1      -3.264  91.171 121.056  0.00  0.00     0.028 C 
ATOM     10  C   LIG d   1      -2.147  92.092 121.574  0.00  0.00     0.006 C 
ENDBRANCH   8   9
BRANCH   8  11
ATOM     11  C   LIG d   1      -2.425  92.046 118.934  0.00  0.00     0.028 C 
ATOM     12  C   LIG d   1      -1.800  91.028 117.968  0.00  0.00     0.006 C 
ENDBRANCH   8  11
ENDBRANCH   7   8
ENDBRANCH   1   7
BRANCH   6  13
ATOM     13  N   LIG d   1      -7.300  93.981 120.259  0.00  0.00    -0.311 N 
ATOM     14  C   LIG d   1      -7.388  95.285 120.514  0.00  0.00     0.210 C 
ATOM     15  C   LIG d   1      -7.834  95.637 121.937  0.00  0.00     0.109 C 
ATOM     16  O   LIG d   1      -7.170  96.184 119.688  0.00  0.00    -0.276 OA
ATOM     17  H   LIG d   1      -7.526  93.322 120.978  0.00  0.00     0.149 HD
ENDBRANCH   6  13
BRANCH   5  18
ATOM     18  N   LIG d   1      -8.824  94.326 117.634  0.00  0.00     0.381 N 
ATOM     19  H   LIG d   1      -8.342  94.815 116.906  0.00  0.00    -0.090 HD
ATOM     20  H   LIG d   1      -8.892  94.934 118.431  0.00  0.00    -0.090 HD
ATOM     21  H   LIG d   1      -9.735  94.068 117.325  0.00  0.00    -0.090 HD
ENDBRANCH   5  18
BRANCH   3  22
ATOM     22  C   LIG d   1      -6.645  90.377 116.021  0.00  0.00     0.382 C 
ATOM     23  O   LIG d   1      -7.531  89.489 116.020  0.00  0.00    -0.241 OA
ATOM     24  O   LIG d   1      -5.711  90.313 115.200  0.00  0.00    -0.241 OA
ENDBRANCH   3  22
TORSDOF 7
ENDMDL
