MODEL 1
REMARK VINA RESULT:      -5.9      0.000      0.000
REMARK  7 active torsions:
REMARK  status: ('A' for Active; 'I' for Inactive)
REMARK    1  A    between atoms: C_2  and  C_3 
REMARK    2  A    between atoms: C_3  and  O_6 
REMARK    3  A    between atoms: C_3  and  C_4 
REMARK    4  A    between atoms: C_7  and  O_6 
REMARK    5  A    between atoms: C_9  and  C_10 
REMARK    6  A    between atoms: N_15  and  C_14 
REMARK    7  A    between atoms: N_20  and  C_19 
REMARK       I    between atoms: C_22  and  N_20 
ROOT
ATOM      1  C   LIG d   1       0.322  57.938 118.416  0.00  0.00     0.161 C 
ATOM      2  C   LIG d   1      -0.256  58.778 117.449  0.00  0.00     0.016 C 
ATOM      3  C   LIG d   1      -0.943  58.296 116.311  0.00  0.00     0.038 C 
ATOM      4  C   LIG d   1      -1.233  56.934 116.142  0.00  0.00     0.028 C 
ATOM      5  C   LIG d   1      -0.234  56.012 116.833  0.00  0.00    -0.047 C 
ATOM      6  C   LIG d   1      -0.079  56.453 118.306  0.00  0.00     0.091 C 
ENDROOT
BRANCH   1   7
ATOM      7  O   LIG d   1       0.030  58.440 119.736  0.00  0.00    -0.368 OA
BRANCH   7   8
ATOM      8  C   LIG d   1      -1.235  59.131 119.889  0.00  0.00     0.119 C 
BRANCH   8   9
ATOM      9  C   LIG d   1      -1.108  60.061 121.111  0.00  0.00     0.028 C 
ATOM     10  C   LIG d   1       0.346  60.480 121.382  0.00  0.00     0.006 C 
ENDBRANCH   8   9
BRANCH   8  11
ATOM     11  C   LIG d   1      -2.364  58.156 120.236  0.00  0.00     0.028 C 
ATOM     12  C   LIG d   1      -3.393  58.010 119.104  0.00  0.00     0.006 C 
ENDBRANCH   8  11
ENDBRANCH   7   8
ENDBRANCH   1   7
BRANCH   6  13
ATOM     13  N   LIG d   1       0.943  55.655 119.032  0.00  0.00    -0.311 N 
ATOM     14  C   LIG d   1       0.668  54.908 120.100  0.00  0.00     0.210 C 
ATOM     15  C   LIG d   1       1.872  54.183 120.709  0.00  0.00     0.109 C 
ATOM     16  O   LIG d   1      -0.465  54.751 120.580  0.00  0.00    -0.276 OA
ATOM     17  H   LIG d   1       1.883  55.700 118.691  0.00  0.00     0.149 HD
ENDBRANCH   6  13
BRANCH   5  18
ATOM     18  N   LIG d   1      -0.731  54.630 116.691  0.00  0.00     0.381 N 
ATOM     19  H   LIG d   1      -1.260  54.545 115.847  0.00  0.00    -0.090 HD
ATOM     20  H   LIG d   1      -1.336  54.422 117.466  0.00  0.00    -0.090 HD
ATOM     21  H   LIG d   1       0.034  53.992 116.678  0.00  0.00    -0.090 HD
ENDBRANCH   5  18
BRANCH   3  22
ATOM     22  C   LIG d   1      -1.315  59.178 115.308  0.00  0.00     0.382 C 
ATOM     23  O   LIG d   1      -2.527  59.445 115.125  0.00  0.00    -0.241 OA
ATOM     24  O   LIG d   1      -0.457  59.676 114.555  0.00  0.00    -0.241 OA
ENDBRANCH   3  22
TORSDOF 7
ENDMDL
MODEL 2
REMARK VINA RESULT:      -5.8      1.271      1.951
REMARK  7 active torsions:
REMARK  status: ('A' for Active; 'I' for Inactive)
REMARK    1  A    between atoms: C_2  and  C_3 
REMARK    2  A    between atoms: C_3  and  O_6 
REMARK    3  A    between atoms: C_3  and  C_4 
REMARK    4  A    between atoms: C_7  and  O_6 
REMARK    5  A    between atoms: C_9  and  C_10 
REMARK    6  A    between atoms: N_15  and  C_14 
REMARK    7  A    between atoms: N_20  and  C_19 
REMARK       I    between atoms: C_22  and  N_20 
ROOT
ATOM      1  C   LIG d   1       0.343  57.975 118.455  0.00  0.00     0.161 C 
ATOM      2  C   LIG d   1      -0.313  58.788 117.517  0.00  0.00     0.016 C 
ATOM      3  C   LIG d   1      -1.069  58.276 116.437  0.00  0.00     0.038 C 
ATOM      4  C   LIG d   1      -1.346  56.907 116.310  0.00  0.00     0.028 C 
ATOM      5  C   LIG d   1      -0.287  56.013 116.945  0.00  0.00    -0.047 C 
ATOM      6  C   LIG d   1      -0.040  56.481 118.397  0.00  0.00     0.091 C 
ENDROOT
BRANCH   1   7
ATOM      7  O   LIG d   1       0.133  58.494 119.783  0.00  0.00    -0.368 OA
BRANCH   7   8
ATOM      8  C   LIG d   1       1.047  59.534 120.213  0.00  0.00     0.119 C 
BRANCH   8   9
ATOM      9  C   LIG d   1       2.454  58.910 120.290  0.00  0.00     0.028 C 
ATOM     10  C   LIG d   1       3.450  59.590 119.335  0.00  0.00     0.006 C 
ENDBRANCH   8   9
BRANCH   8  11
ATOM     11  C   LIG d   1       0.731  59.999 121.637  0.00  0.00     0.028 C 
ATOM     12  C   LIG d   1      -0.384  61.056 121.685  0.00  0.00     0.006 C 
ENDBRANCH   8  11
ENDBRANCH   7   8
ENDBRANCH   1   7
BRANCH   6  13
ATOM     13  N   LIG d   1       1.043  55.713 119.064  0.00  0.00    -0.311 N 
ATOM     14  C   LIG d   1       0.821  54.650 119.835  0.00  0.00     0.210 C 
ATOM     15  C   LIG d   1       2.076  54.017 120.442  0.00  0.00     0.109 C 
ATOM     16  O   LIG d   1      -0.295  54.152 120.048  0.00  0.00    -0.276 OA
ATOM     17  H   LIG d   1       1.982  56.029 118.920  0.00  0.00     0.149 HD
ENDBRANCH   6  13
BRANCH   5  18
ATOM     18  N   LIG d   1      -0.769  54.621 116.860  0.00  0.00     0.381 N 
ATOM     19  H   LIG d   1      -1.654  54.597 116.394  0.00  0.00    -0.090 HD
ATOM     20  H   LIG d   1      -0.893  54.263 117.791  0.00  0.00    -0.090 HD
ATOM     21  H   LIG d   1      -0.110  54.061 116.366  0.00  0.00    -0.090 HD
ENDBRANCH   5  18
BRANCH   3  22
ATOM     22  C   LIG d   1      -1.523  59.135 115.448  0.00  0.00     0.382 C 
ATOM     23  O   LIG d   1      -2.729  59.479 115.422  0.00  0.00    -0.241 OA
ATOM     24  O   LIG d   1      -0.752  59.535 114.555  0.00  0.00    -0.241 OA
ENDBRANCH   3  22
TORSDOF 7
ENDMDL
MODEL 3
REMARK VINA RESULT:      -5.8      2.263      3.091
REMARK  7 active torsions:
REMARK  status: ('A' for Active; 'I' for Inactive)
REMARK    1  A    between atoms: C_2  and  C_3 
REMARK    2  A    between atoms: C_3  and  O_6 
REMARK    3  A    between atoms: C_3  and  C_4 
REMARK    4  A    between atoms: C_7  and  O_6 
REMARK    5  A    between atoms: C_9  and  C_10 
REMARK    6  A    between atoms: N_15  and  C_14 
REMARK    7  A    between atoms: N_20  and  C_19 
REMARK       I    between atoms: C_22  and  N_20 
ROOT
ATOM      1  C   LIG d   1       0.021  57.440 118.393  0.00  0.00     0.161 C 
ATOM      2  C   LIG d   1      -0.056  58.121 117.167  0.00  0.00     0.016 C 
ATOM      3  C   LIG d   1      -1.218  58.791 116.720  0.00  0.00     0.038 C 
ATOM      4  C   LIG d   1      -2.343  58.952 117.543  0.00  0.00     0.028 C 
ATOM      5  C   LIG d   1      -2.493  57.851 118.587  0.00  0.00    -0.047 C 
ATOM      6  C   LIG d   1      -1.159  57.700 119.352  0.00  0.00     0.091 C 
ENDROOT
BRANCH   1   7
ATOM      7  O   LIG d   1       1.271  57.743 119.043  0.00  0.00    -0.368 OA
BRANCH   7   8
ATOM      8  C   LIG d   1       1.528  59.144 119.310  0.00  0.00     0.119 C 
BRANCH   8   9
ATOM      9  C   LIG d   1       2.940  59.464 118.783  0.00  0.00     0.028 C 
ATOM     10  C   LIG d   1       3.922  59.815 119.914  0.00  0.00     0.006 C 
ENDBRANCH   8   9
BRANCH   8  11
ATOM     11  C   LIG d   1       1.583  59.423 120.815  0.00  0.00     0.028 C 
ATOM     12  C   LIG d   1       0.465  60.366 121.287  0.00  0.00     0.006 C 
ENDBRANCH   8  11
ENDBRANCH   7   8
ENDBRANCH   1   7
BRANCH   6  13
ATOM     13  N   LIG d   1      -1.193  56.586 120.336  0.00  0.00    -0.311 N 
ATOM     14  C   LIG d   1      -1.479  56.755 121.626  0.00  0.00     0.210 C 
ATOM     15  C   LIG d   1      -1.439  55.477 122.470  0.00  0.00     0.109 C 
ATOM     16  O   LIG d   1      -1.793  57.837 122.144  0.00  0.00    -0.276 OA
ATOM     17  H   LIG d   1      -0.981  55.669 119.994  0.00  0.00     0.149 HD
ENDBRANCH   6  13
BRANCH   5  18
ATOM     18  N   LIG d   1      -3.624  58.217 119.461  0.00  0.00     0.381 N 
ATOM     19  H   LIG d   1      -4.149  58.959 119.043  0.00  0.00    -0.090 HD
ATOM     20  H   LIG d   1      -3.262  58.543 120.340  0.00  0.00    -0.090 HD
ATOM     21  H   LIG d   1      -4.211  57.426 119.608  0.00  0.00    -0.090 HD
ENDBRANCH   5  18
BRANCH   3  22
ATOM     22  C   LIG d   1      -1.278  59.272 115.421  0.00  0.00     0.382 C 
ATOM     23  O   LIG d   1      -2.330  59.140 114.751  0.00  0.00    -0.241 OA
ATOM     24  O   LIG d   1      -0.278  59.797 114.896  0.00  0.00    -0.241 OA
ENDBRANCH   3  22
TORSDOF 7
ENDMDL
MODEL 4
REMARK VINA RESULT:      -5.7      2.143      4.921
REMARK  7 active torsions:
REMARK  status: ('A' for Active; 'I' for Inactive)
REMARK    1  A    between atoms: C_2  and  C_3 
REMARK    2  A    between atoms: C_3  and  O_6 
REMARK    3  A    between atoms: C_3  and  C_4 
REMARK    4  A    between atoms: C_7  and  O_6 
REMARK    5  A    between atoms: C_9  and  C_10 
REMARK    6  A    between atoms: N_15  and  C_14 
REMARK    7  A    between atoms: N_20  and  C_19 
REMARK       I    between atoms: C_22  and  N_20 
ROOT
ATOM      1  C   LIG d   1      -0.778  59.327 118.886  0.00  0.00     0.161 C 
ATOM      2  C   LIG d   1      -0.948  60.084 120.057  0.00  0.00     0.016 C 
ATOM      3  C   LIG d   1       0.027  60.168 121.078  0.00  0.00     0.038 C 
ATOM      4  C   LIG d   1       1.308  59.619 120.926  0.00  0.00     0.028 C 
ATOM      5  C   LIG d   1       1.347  58.423 119.980  0.00  0.00    -0.047 C 
ATOM      6  C   LIG d   1       0.658  58.811 118.652  0.00  0.00     0.091 C 
ENDROOT
BRANCH   1   7
ATOM      7  O   LIG d   1      -1.230  60.083 117.745  0.00  0.00    -0.368 OA
BRANCH   7   8
ATOM      8  C   LIG d   1      -2.470  59.643 117.140  0.00  0.00     0.119 C 
BRANCH   8   9
ATOM      9  C   LIG d   1      -3.108  58.611 118.090  0.00  0.00     0.028 C 
ATOM     10  C   LIG d   1      -3.739  57.429 117.334  0.00  0.00     0.006 C 
ENDBRANCH   8   9
BRANCH   8  11
ATOM     11  C   LIG d   1      -2.214  58.887 115.833  0.00  0.00     0.028 C 
ATOM     12  C   LIG d   1      -0.900  59.300 115.153  0.00  0.00     0.006 C 
ENDBRANCH   8  11
ENDBRANCH   7   8
ENDBRANCH   1   7
BRANCH   6  13
ATOM     13  N   LIG d   1       0.577  57.672 117.701  0.00  0.00    -0.311 N 
ATOM     14  C   LIG d   1      -0.029  56.521 117.986  0.00  0.00     0.210 C 
ATOM     15  C   LIG d   1       0.021  55.471 116.872  0.00  0.00     0.109 C 
ATOM     16  O   LIG d   1      -0.631  56.281 119.044  0.00  0.00    -0.276 OA
ATOM     17  H   LIG d   1       1.012  57.792 116.808  0.00  0.00     0.149 HD
ENDBRANCH   6  13
BRANCH   5  18
ATOM     18  N   LIG d   1       2.760  58.037 119.807  0.00  0.00     0.381 N 
ATOM     19  H   LIG d   1       3.224  58.703 119.222  0.00  0.00    -0.090 HD
ATOM     20  H   LIG d   1       2.799  57.140 119.356  0.00  0.00    -0.090 HD
ATOM     21  H   LIG d   1       3.212  57.991 120.694  0.00  0.00    -0.090 HD
ENDBRANCH   5  18
BRANCH   3  22
ATOM     22  C   LIG d   1      -0.292  60.774 122.283  0.00  0.00     0.382 C 
ATOM     23  O   LIG d   1       0.318  60.447 123.330  0.00  0.00    -0.241 OA
ATOM     24  O   LIG d   1      -1.211  61.612 122.346  0.00  0.00    -0.241 OA
ENDBRANCH   3  22
TORSDOF 7
ENDMDL
MODEL 5
REMARK VINA RESULT:      -5.5     33.276     35.288
REMARK  7 active torsions:
REMARK  status: ('A' for Active; 'I' for Inactive)
REMARK    1  A    between atoms: C_2  and  C_3 
REMARK    2  A    between atoms: C_3  and  O_6 
REMARK    3  A    between atoms: C_3  and  C_4 
REMARK    4  A    between atoms: C_7  and  O_6 
REMARK    5  A    between atoms: C_9  and  C_10 
REMARK    6  A    between atoms: N_15  and  C_14 
REMARK    7  A    between atoms: N_20  and  C_19 
REMARK       I    between atoms: C_22  and  N_20 
ROOT
ATOM      1  C   LIG d   1      -5.432  92.506 118.081  0.00  0.00     0.161 C 
ATOM      2  C   LIG d   1      -6.371  91.658 117.471  0.00  0.00     0.016 C 
ATOM      3  C   LIG d   1      -6.025  90.666 116.524  0.00  0.00     0.038 C 
ATOM      4  C   LIG d   1      -4.689  90.352 116.235  0.00  0.00     0.028 C 
ATOM      5  C   LIG d   1      -3.732  91.520 116.448  0.00  0.00    -0.047 C 
ATOM      6  C   LIG d   1      -3.959  92.103 117.862  0.00  0.00     0.091 C 
ENDROOT
BRANCH   1   7
ATOM      7  O   LIG d   1      -5.717  92.617 119.490  0.00  0.00    -0.368 OA
BRANCH   7   8
ATOM      8  C   LIG d   1      -6.659  93.649 119.870  0.00  0.00     0.119 C 
BRANCH   8   9
ATOM      9  C   LIG d   1      -6.256  94.940 119.131  0.00  0.00     0.028 C 
ATOM     10  C   LIG d   1      -7.467  95.685 118.547  0.00  0.00     0.006 C 
ENDBRANCH   8   9
BRANCH   8  11
ATOM     11  C   LIG d   1      -6.548  93.983 121.361  0.00  0.00     0.028 C 
ATOM     12  C   LIG d   1      -7.915  94.227 122.020  0.00  0.00     0.006 C 
ENDBRANCH   8  11
ENDBRANCH   7   8
ENDBRANCH   1   7
BRANCH   6  13
ATOM     13  N   LIG d   1      -3.121  93.303 118.121  0.00  0.00    -0.311 N 
ATOM     14  C   LIG d   1      -1.923  93.250 118.701  0.00  0.00     0.210 C 
ATOM     15  C   LIG d   1      -1.236  94.605 118.892  0.00  0.00     0.109 C 
ATOM     16  O   LIG d   1      -1.350  92.205 119.046  0.00  0.00    -0.276 OA
ATOM     17  H   LIG d   1      -3.495  94.189 117.844  0.00  0.00     0.149 HD
ENDBRANCH   6  13
BRANCH   5  18
ATOM     18  N   LIG d   1      -2.361  91.015 116.244  0.00  0.00     0.381 N 
ATOM     19  H   LIG d   1      -2.390  90.050 115.982  0.00  0.00    -0.090 HD
ATOM     20  H   LIG d   1      -1.854  91.092 117.109  0.00  0.00    -0.090 HD
ATOM     21  H   LIG d   1      -1.904  91.545 115.535  0.00  0.00    -0.090 HD
ENDBRANCH   5  18
BRANCH   3  22
ATOM     22  C   LIG d   1      -7.023  90.004 115.826  0.00  0.00     0.382 C 
ATOM     23  O   LIG d   1      -7.041  90.041 114.572  0.00  0.00    -0.241 OA
ATOM     24  O   LIG d   1      -7.932  89.408 116.436  0.00  0.00    -0.241 OA
ENDBRANCH   3  22
TORSDOF 7
ENDMDL
MODEL 6
REMARK VINA RESULT:      -5.4      1.699      2.142
REMARK  7 active torsions:
REMARK  status: ('A' for Active; 'I' for Inactive)
REMARK    1  A    between atoms: C_2  and  C_3 
REMARK    2  A    between atoms: C_3  and  O_6 
REMARK    3  A    between atoms: C_3  and  C_4 
REMARK    4  A    between atoms: C_7  and  O_6 
REMARK    5  A    between atoms: C_9  and  C_10 
REMARK    6  A    between atoms: N_15  and  C_14 
REMARK    7  A    between atoms: N_20  and  C_19 
REMARK       I    between atoms: C_22  and  N_20 
ROOT
ATOM      1  C   LIG d   1      -1.179  58.558 118.926  0.00  0.00     0.161 C 
ATOM      2  C   LIG d   1      -2.350  59.017 118.302  0.00  0.00     0.016 C 
ATOM      3  C   LIG d   1      -2.909  58.411 117.153  0.00  0.00     0.038 C 
ATOM      4  C   LIG d   1      -2.414  57.204 116.637  0.00  0.00     0.028 C 
ATOM      5  C   LIG d   1      -0.934  56.981 116.931  0.00  0.00    -0.047 C 
ATOM      6  C   LIG d   1      -0.688  57.177 118.444  0.00  0.00     0.091 C 
ENDROOT
BRANCH   1   7
ATOM      7  O   LIG d   1      -1.357  58.555 120.357  0.00  0.00    -0.368 OA
BRANCH   7   8
ATOM      8  C   LIG d   1      -1.084  59.805 121.036  0.00  0.00     0.119 C 
BRANCH   8   9
ATOM      9  C   LIG d   1       0.431  60.068 120.928  0.00  0.00     0.028 C 
ATOM     10  C   LIG d   1       1.134  60.023 122.295  0.00  0.00     0.006 C 
ENDBRANCH   8   9
BRANCH   8  11
ATOM     11  C   LIG d   1      -1.370  59.698 122.537  0.00  0.00     0.028 C 
ATOM     12  C   LIG d   1      -2.434  58.639 122.866  0.00  0.00     0.006 C 
ENDBRANCH   8  11
ENDBRANCH   7   8
ENDBRANCH   1   7
BRANCH   6  13
ATOM     13  N   LIG d   1       0.749  57.060 118.804  0.00  0.00    -0.311 N 
ATOM     14  C   LIG d   1       1.199  56.271 119.779  0.00  0.00     0.210 C 
ATOM     15  C   LIG d   1       2.714  56.314 119.998  0.00  0.00     0.109 C 
ATOM     16  O   LIG d   1       0.490  55.515 120.461  0.00  0.00    -0.276 OA
ATOM     17  H   LIG d   1       1.397  57.615 118.281  0.00  0.00     0.149 HD
ENDBRANCH   6  13
BRANCH   5  18
ATOM     18  N   LIG d   1      -0.585  55.628 116.458  0.00  0.00     0.381 N 
ATOM     19  H   LIG d   1      -1.399  55.177 116.090  0.00  0.00    -0.090 HD
ATOM     20  H   LIG d   1      -0.250  55.088 117.237  0.00  0.00    -0.090 HD
ATOM     21  H   LIG d   1       0.119  55.683 115.756  0.00  0.00    -0.090 HD
ENDBRANCH   5  18
BRANCH   3  22
ATOM     22  C   LIG d   1      -3.951  59.035 116.484  0.00  0.00     0.382 C 
ATOM     23  O   LIG d   1      -5.139  58.757 116.777  0.00  0.00    -0.241 OA
ATOM     24  O   LIG d   1      -3.718  59.839 115.562  0.00  0.00    -0.241 OA
ENDBRANCH   3  22
TORSDOF 7
ENDMDL
MODEL 7
REMARK VINA RESULT:      -5.3      2.100      2.847
REMARK  7 active torsions:
REMARK  status: ('A' for Active; 'I' for Inactive)
REMARK    1  A    between atoms: C_2  and  C_3 
REMARK    2  A    between atoms: C_3  and  O_6 
REMARK    3  A    between atoms: C_3  and  C_4 
REMARK    4  A    between atoms: C_7  and  O_6 
REMARK    5  A    between atoms: C_9  and  C_10 
REMARK    6  A    between atoms: N_15  and  C_14 
REMARK    7  A    between atoms: N_20  and  C_19 
REMARK       I    between atoms: C_22  and  N_20 
ROOT
ATOM      1  C   LIG d   1      -0.844  59.409 118.861  0.00  0.00     0.161 C 
ATOM      2  C   LIG d   1      -2.119  59.542 118.288  0.00  0.00     0.016 C 
ATOM      3  C   LIG d   1      -2.615  58.678 117.284  0.00  0.00     0.038 C 
ATOM      4  C   LIG d   1      -1.922  57.523 116.891  0.00  0.00     0.028 C 
ATOM      5  C   LIG d   1      -0.413  57.629 117.079  0.00  0.00    -0.047 C 
ATOM      6  C   LIG d   1      -0.118  58.089 118.525  0.00  0.00     0.091 C 
ENDROOT
BRANCH   1   7
ATOM      7  O   LIG d   1      -0.930  59.583 120.289  0.00  0.00    -0.368 OA
BRANCH   7   8
ATOM      8  C   LIG d   1      -0.929  58.370 121.081  0.00  0.00     0.119 C 
BRANCH   8   9
ATOM      9  C   LIG d   1      -2.335  58.216 121.693  0.00  0.00     0.028 C 
ATOM     10  C   LIG d   1      -2.300  58.120 123.227  0.00  0.00     0.006 C 
ENDBRANCH   8   9
BRANCH   8  11
ATOM     11  C   LIG d   1       0.022  58.484 122.276  0.00  0.00     0.028 C 
ATOM     12  C   LIG d   1       1.028  59.637 122.128  0.00  0.00     0.006 C 
ENDBRANCH   8  11
ENDBRANCH   7   8
ENDBRANCH   1   7
BRANCH   6  13
ATOM     13  N   LIG d   1       1.333  58.300 118.768  0.00  0.00    -0.311 N 
ATOM     14  C   LIG d   1       2.129  57.374 119.302  0.00  0.00     0.210 C 
ATOM     15  C   LIG d   1       3.588  57.804 119.485  0.00  0.00     0.109 C 
ATOM     16  O   LIG d   1       1.772  56.228 119.612  0.00  0.00    -0.276 OA
ATOM     17  H   LIG d   1       1.713  59.191 118.517  0.00  0.00     0.149 HD
ENDBRANCH   6  13
BRANCH   5  18
ATOM     18  N   LIG d   1       0.170  56.311 116.762  0.00  0.00     0.381 N 
ATOM     19  H   LIG d   1      -0.559  55.666 116.531  0.00  0.00    -0.090 HD
ATOM     20  H   LIG d   1       0.652  55.965 117.572  0.00  0.00    -0.090 HD
ATOM     21  H   LIG d   1       0.804  56.394 115.998  0.00  0.00    -0.090 HD
ENDBRANCH   5  18
BRANCH   3  22
ATOM     22  C   LIG d   1      -3.800  58.988 116.634  0.00  0.00     0.382 C 
ATOM     23  O   LIG d   1      -4.872  58.443 116.990  0.00  0.00    -0.241 OA
ATOM     24  O   LIG d   1      -3.803  59.773 115.667  0.00  0.00    -0.241 OA
ENDBRANCH   3  22
TORSDOF 7
ENDMDL
MODEL 8
REMARK VINA RESULT:      -5.2     32.662     34.798
REMARK  7 active torsions:
REMARK  status: ('A' for Active; 'I' for Inactive)
REMARK    1  A    between atoms: C_2  and  C_3 
REMARK    2  A    between atoms: C_3  and  O_6 
REMARK    3  A    between atoms: C_3  and  C_4 
REMARK    4  A    between atoms: C_7  and  O_6 
REMARK    5  A    between atoms: C_9  and  C_10 
REMARK    6  A    between atoms: N_15  and  C_14 
REMARK    7  A    between atoms: N_20  and  C_19 
REMARK       I    between atoms: C_22  and  N_20 
ROOT
ATOM      1  C   LIG d   1      -4.696  91.316 118.651  0.00  0.00     0.161 C 
ATOM      2  C   LIG d   1      -5.295  90.568 117.624  0.00  0.00     0.016 C 
ATOM      3  C   LIG d   1      -6.317  91.073 116.788  0.00  0.00     0.038 C 
ATOM      4  C   LIG d   1      -6.706  92.420 116.824  0.00  0.00     0.028 C 
ATOM      5  C   LIG d   1      -6.486  93.078 118.182  0.00  0.00    -0.047 C 
ATOM      6  C   LIG d   1      -5.030  92.822 118.633  0.00  0.00     0.091 C 
ENDROOT
BRANCH   1   7
ATOM      7  O   LIG d   1      -3.268  91.119 118.631  0.00  0.00    -0.368 OA
BRANCH   7   8
ATOM      8  C   LIG d   1      -2.746  90.360 117.513  0.00  0.00     0.119 C 
BRANCH   8   9
ATOM      9  C   LIG d   1      -1.967  89.162 118.090  0.00  0.00     0.028 C 
ATOM     10  C   LIG d   1      -2.736  88.449 119.215  0.00  0.00     0.006 C 
ENDBRANCH   8   9
BRANCH   8  11
ATOM     11  C   LIG d   1      -1.715  91.171 116.722  0.00  0.00     0.028 C 
ATOM     12  C   LIG d   1      -1.760  92.672 117.049  0.00  0.00     0.006 C 
ENDBRANCH   8  11
ENDBRANCH   7   8
ENDBRANCH   1   7
BRANCH   6  13
ATOM     13  N   LIG d   1      -4.754  93.360 119.991  0.00  0.00    -0.311 N 
ATOM     14  C   LIG d   1      -3.859  94.316 120.233  0.00  0.00     0.210 C 
ATOM     15  C   LIG d   1      -3.717  94.711 121.706  0.00  0.00     0.109 C 
ATOM     16  O   LIG d   1      -3.191  94.896 119.364  0.00  0.00    -0.276 OA
ATOM     17  H   LIG d   1      -5.274  92.968 120.751  0.00  0.00     0.149 HD
ENDBRANCH   6  13
BRANCH   5  18
ATOM     18  N   LIG d   1      -6.804  94.511 118.040  0.00  0.00     0.381 N 
ATOM     19  H   LIG d   1      -5.995  95.008 117.724  0.00  0.00    -0.090 HD
ATOM     20  H   LIG d   1      -7.068  94.876 118.938  0.00  0.00    -0.090 HD
ATOM     21  H   LIG d   1      -7.551  94.632 117.392  0.00  0.00    -0.090 HD
ENDBRANCH   5  18
BRANCH   3  22
ATOM     22  C   LIG d   1      -6.988  90.216 115.929  0.00  0.00     0.382 C 
ATOM     23  O   LIG d   1      -6.743  90.241 114.699  0.00  0.00    -0.241 OA
ATOM     24  O   LIG d   1      -7.869  89.449 116.363  0.00  0.00    -0.241 OA
ENDBRANCH   3  22
TORSDOF 7
ENDMDL
MODEL 9
REMARK VINA RESULT:      -5.1     17.626     19.543
REMARK  7 active torsions:
REMARK  status: ('A' for Active; 'I' for Inactive)
REMARK    1  A    between atoms: C_2  and  C_3 
REMARK    2  A    between atoms: C_3  and  O_6 
REMARK    3  A    between atoms: C_3  and  C_4 
REMARK    4  A    between atoms: C_7  and  O_6 
REMARK    5  A    between atoms: C_9  and  C_10 
REMARK    6  A    between atoms: N_15  and  C_14 
REMARK    7  A    between atoms: N_20  and  C_19 
REMARK       I    between atoms: C_22  and  N_20 
ROOT
ATOM      1  C   LIG d   1      -7.860  74.995 117.896  0.00  0.00     0.161 C 
ATOM      2  C   LIG d   1      -9.044  75.740 118.026  0.00  0.00     0.016 C 
ATOM      3  C   LIG d   1      -9.067  77.149 118.143  0.00  0.00     0.038 C 
ATOM      4  C   LIG d   1      -7.910  77.926 117.984  0.00  0.00     0.028 C 
ATOM      5  C   LIG d   1      -6.629  77.187 118.355  0.00  0.00    -0.047 C 
ATOM      6  C   LIG d   1      -6.596  75.833 117.609  0.00  0.00     0.091 C 
ENDROOT
BRANCH   1   7
ATOM      7  O   LIG d   1      -8.029  73.982 116.885  0.00  0.00    -0.368 OA
BRANCH   7   8
ATOM      8  C   LIG d   1      -8.240  72.631 117.365  0.00  0.00     0.119 C 
BRANCH   8   9
ATOM      9  C   LIG d   1      -7.312  71.703 116.557  0.00  0.00     0.028 C 
ATOM     10  C   LIG d   1      -6.478  72.468 115.516  0.00  0.00     0.006 C 
ENDBRANCH   8   9
BRANCH   8  11
ATOM     11  C   LIG d   1      -9.661  72.147 117.063  0.00  0.00     0.028 C 
ATOM     12  C   LIG d   1      -9.750  70.621 116.906  0.00  0.00     0.006 C 
ENDBRANCH   8  11
ENDBRANCH   7   8
ENDBRANCH   1   7
BRANCH   6  13
ATOM     13  N   LIG d   1      -5.417  75.009 117.981  0.00  0.00    -0.311 N 
ATOM     14  C   LIG d   1      -4.282  74.998 117.284  0.00  0.00     0.210 C 
ATOM     15  C   LIG d   1      -3.197  74.063 117.829  0.00  0.00     0.109 C 
ATOM     16  O   LIG d   1      -4.058  75.698 116.285  0.00  0.00    -0.276 OA
ATOM     17  H   LIG d   1      -5.500  74.435 118.797  0.00  0.00     0.149 HD
ENDBRANCH   6  13
BRANCH   5  18
ATOM     18  N   LIG d   1      -5.493  78.063 118.012  0.00  0.00     0.381 N 
ATOM     19  H   LIG d   1      -4.779  77.980 118.708  0.00  0.00    -0.090 HD
ATOM     20  H   LIG d   1      -5.811  79.016 117.998  0.00  0.00    -0.090 HD
ATOM     21  H   LIG d   1      -5.128  77.814 117.120  0.00  0.00    -0.090 HD
ENDBRANCH   5  18
BRANCH   3  22
ATOM     22  C   LIG d   1     -10.254  77.793 118.461  0.00  0.00     0.382 C 
ATOM     23  O   LIG d   1     -10.265  79.035 118.638  0.00  0.00    -0.241 OA
ATOM     24  O   LIG d   1     -11.304  77.141 118.616  0.00  0.00    -0.241 OA
ENDBRANCH   3  22
TORSDOF 7
ENDMDL
