MODEL 1
REMARK VINA RESULT:      -5.3      0.000      0.000
REMARK  7 active torsions:
REMARK  status: ('A' for Active; 'I' for Inactive)
REMARK    1  A    between atoms: C_2  and  C_3 
REMARK    2  A    between atoms: C_3  and  O_6 
REMARK    3  A    between atoms: C_3  and  C_4 
REMARK    4  A    between atoms: C_7  and  O_6 
REMARK    5  A    between atoms: C_9  and  C_10 
REMARK    6  A    between atoms: N_15  and  C_14 
REMARK    7  A    between atoms: N_20  and  C_19 
REMARK       I    between atoms: C_22  and  N_20 
ROOT
ATOM      1  C   LIG d   1      -5.558  92.903 117.327  0.00  0.00     0.161 C 
ATOM      2  C   LIG d   1      -6.626  92.034 117.050  0.00  0.00     0.016 C 
ATOM      3  C   LIG d   1      -6.454  90.665 116.738  0.00  0.00     0.038 C 
ATOM      4  C   LIG d   1      -5.205  90.035 116.830  0.00  0.00     0.028 C 
ATOM      5  C   LIG d   1      -4.030  90.983 116.614  0.00  0.00    -0.047 C 
ATOM      6  C   LIG d   1      -4.197  92.209 117.541  0.00  0.00     0.091 C 
ENDROOT
BRANCH   1   7
ATOM      7  O   LIG d   1      -5.883  93.730 118.462  0.00  0.00    -0.368 OA
BRANCH   7   8
ATOM      8  C   LIG d   1      -5.577  93.173 119.764  0.00  0.00     0.119 C 
BRANCH   8   9
ATOM      9  C   LIG d   1      -6.903  93.057 120.540  0.00  0.00     0.028 C 
ATOM     10  C   LIG d   1      -6.811  92.068 121.714  0.00  0.00     0.006 C 
ENDBRANCH   8   9
BRANCH   8  11
ATOM     11  C   LIG d   1      -4.708  94.128 120.588  0.00  0.00     0.028 C 
ATOM     12  C   LIG d   1      -4.628  95.537 119.979  0.00  0.00     0.006 C 
ENDBRANCH   8  11
ENDBRANCH   7   8
ENDBRANCH   1   7
BRANCH   6  13
ATOM     13  N   LIG d   1      -3.135  93.227 117.332  0.00  0.00    -0.311 N 
ATOM     14  C   LIG d   1      -2.040  93.310 118.087  0.00  0.00     0.210 C 
ATOM     15  C   LIG d   1      -1.082  94.445 117.714  0.00  0.00     0.109 C 
ATOM     16  O   LIG d   1      -1.757  92.531 119.010  0.00  0.00    -0.276 OA
ATOM     17  H   LIG d   1      -3.269  93.879 116.585  0.00  0.00     0.149 HD
ENDBRANCH   6  13
BRANCH   5  18
ATOM     18  N   LIG d   1      -2.792  90.226 116.874  0.00  0.00     0.381 N 
ATOM     19  H   LIG d   1      -2.240  90.182 116.040  0.00  0.00    -0.090 HD
ATOM     20  H   LIG d   1      -3.034  89.288 117.142  0.00  0.00    -0.090 HD
ATOM     21  H   LIG d   1      -2.271  90.663 117.602  0.00  0.00    -0.090 HD
ENDBRANCH   5  18
BRANCH   3  22
ATOM     22  C   LIG d   1      -7.535  89.922 116.289  0.00  0.00     0.382 C 
ATOM     23  O   LIG d   1      -8.232  90.342 115.334  0.00  0.00    -0.241 OA
ATOM     24  O   LIG d   1      -7.849  88.858 116.855  0.00  0.00    -0.241 OA
ENDBRANCH   3  22
TORSDOF 7
ENDMDL
MODEL 2
REMARK VINA RESULT:      -5.3     12.600     14.933
REMARK  7 active torsions:
REMARK  status: ('A' for Active; 'I' for Inactive)
REMARK    1  A    between atoms: C_2  and  C_3 
REMARK    2  A    between atoms: C_3  and  O_6 
REMARK    3  A    between atoms: C_3  and  C_4 
REMARK    4  A    between atoms: C_7  and  O_6 
REMARK    5  A    between atoms: C_9  and  C_10 
REMARK    6  A    between atoms: N_15  and  C_14 
REMARK    7  A    between atoms: N_20  and  C_19 
REMARK       I    between atoms: C_22  and  N_20 
ROOT
ATOM      1  C   LIG d   1      -6.186  77.816 117.181  0.00  0.00     0.161 C 
ATOM      2  C   LIG d   1      -7.547  77.715 117.514  0.00  0.00     0.016 C 
ATOM      3  C   LIG d   1      -8.273  78.751 118.145  0.00  0.00     0.038 C 
ATOM      4  C   LIG d   1      -7.720  80.024 118.351  0.00  0.00     0.028 C 
ATOM      5  C   LIG d   1      -6.202  80.011 118.491  0.00  0.00    -0.047 C 
ATOM      6  C   LIG d   1      -5.596  79.237 117.297  0.00  0.00     0.091 C 
ENDROOT
BRANCH   1   7
ATOM      7  O   LIG d   1      -5.966  77.289 115.858  0.00  0.00    -0.368 OA
BRANCH   7   8
ATOM      8  C   LIG d   1      -5.344  75.982 115.787  0.00  0.00     0.119 C 
BRANCH   8   9
ATOM      9  C   LIG d   1      -4.078  76.118 114.921  0.00  0.00     0.028 C 
ATOM     10  C   LIG d   1      -2.816  75.613 115.642  0.00  0.00     0.006 C 
ENDBRANCH   8   9
BRANCH   8  11
ATOM     11  C   LIG d   1      -6.236  74.980 115.048  0.00  0.00     0.028 C 
ATOM     12  C   LIG d   1      -6.064  73.541 115.557  0.00  0.00     0.006 C 
ENDBRANCH   8  11
ENDBRANCH   7   8
ENDBRANCH   1   7
BRANCH   6  13
ATOM     13  N   LIG d   1      -4.119  79.104 117.400  0.00  0.00    -0.311 N 
ATOM     14  C   LIG d   1      -3.290  79.335 116.383  0.00  0.00     0.210 C 
ATOM     15  C   LIG d   1      -1.806  79.119 116.697  0.00  0.00     0.109 C 
ATOM     16  O   LIG d   1      -3.640  79.728 115.260  0.00  0.00    -0.276 OA
ATOM     17  H   LIG d   1      -3.747  78.819 118.284  0.00  0.00     0.149 HD
ENDBRANCH   6  13
BRANCH   5  18
ATOM     18  N   LIG d   1      -5.748  81.412 118.562  0.00  0.00     0.381 N 
ATOM     19  H   LIG d   1      -5.373  81.692 117.678  0.00  0.00    -0.090 HD
ATOM     20  H   LIG d   1      -5.020  81.484 119.250  0.00  0.00    -0.090 HD
ATOM     21  H   LIG d   1      -6.510  82.005 118.810  0.00  0.00    -0.090 HD
ENDBRANCH   5  18
BRANCH   3  22
ATOM     22  C   LIG d   1      -9.554  78.505 118.614  0.00  0.00     0.382 C 
ATOM     23  O   LIG d   1     -10.038  79.224 119.522  0.00  0.00    -0.241 OA
ATOM     24  O   LIG d   1     -10.216  77.547 118.172  0.00  0.00    -0.241 OA
ENDBRANCH   3  22
TORSDOF 7
ENDMDL
MODEL 3
REMARK VINA RESULT:      -5.3      1.530      2.190
REMARK  7 active torsions:
REMARK  status: ('A' for Active; 'I' for Inactive)
REMARK    1  A    between atoms: C_2  and  C_3 
REMARK    2  A    between atoms: C_3  and  O_6 
REMARK    3  A    between atoms: C_3  and  C_4 
REMARK    4  A    between atoms: C_7  and  O_6 
REMARK    5  A    between atoms: C_9  and  C_10 
REMARK    6  A    between atoms: N_15  and  C_14 
REMARK    7  A    between atoms: N_20  and  C_19 
REMARK       I    between atoms: C_22  and  N_20 
ROOT
ATOM      1  C   LIG d   1      -5.649  92.957 117.724  0.00  0.00     0.161 C 
ATOM      2  C   LIG d   1      -6.494  91.939 117.250  0.00  0.00     0.016 C 
ATOM      3  C   LIG d   1      -6.023  90.684 116.801  0.00  0.00     0.038 C 
ATOM      4  C   LIG d   1      -4.680  90.303 116.938  0.00  0.00     0.028 C 
ATOM      5  C   LIG d   1      -3.713  91.483 116.943  0.00  0.00    -0.047 C 
ATOM      6  C   LIG d   1      -4.193  92.520 117.984  0.00  0.00     0.091 C 
ENDROOT
BRANCH   1   7
ATOM      7  O   LIG d   1      -6.215  93.548 118.910  0.00  0.00    -0.368 OA
BRANCH   7   8
ATOM      8  C   LIG d   1      -7.049  94.715 118.705  0.00  0.00     0.119 C 
BRANCH   8   9
ATOM      9  C   LIG d   1      -6.152  95.959 118.860  0.00  0.00     0.028 C 
ATOM     10  C   LIG d   1      -5.685  96.168 120.311  0.00  0.00     0.006 C 
ENDBRANCH   8   9
BRANCH   8  11
ATOM     11  C   LIG d   1      -8.111  94.841 119.802  0.00  0.00     0.028 C 
ATOM     12  C   LIG d   1      -9.297  95.724 119.384  0.00  0.00     0.006 C 
ENDBRANCH   8  11
ENDBRANCH   7   8
ENDBRANCH   1   7
BRANCH   6  13
ATOM     13  N   LIG d   1      -3.351  93.744 117.994  0.00  0.00    -0.311 N 
ATOM     14  C   LIG d   1      -2.799  94.246 119.098  0.00  0.00     0.210 C 
ATOM     15  C   LIG d   1      -1.984  95.527 118.889  0.00  0.00     0.109 C 
ATOM     16  O   LIG d   1      -2.880  93.734 120.224  0.00  0.00    -0.276 OA
ATOM     17  H   LIG d   1      -3.207  94.206 117.117  0.00  0.00     0.149 HD
ENDBRANCH   6  13
BRANCH   5  18
ATOM     18  N   LIG d   1      -2.366  90.955 117.230  0.00  0.00     0.381 N 
ATOM     19  H   LIG d   1      -2.344  90.569 118.153  0.00  0.00    -0.090 HD
ATOM     20  H   LIG d   1      -1.705  91.711 117.188  0.00  0.00    -0.090 HD
ATOM     21  H   LIG d   1      -2.125  90.255 116.563  0.00  0.00    -0.090 HD
ENDBRANCH   5  18
BRANCH   3  22
ATOM     22  C   LIG d   1      -6.894  89.808 116.171  0.00  0.00     0.382 C 
ATOM     23  O   LIG d   1      -7.656  89.082 116.854  0.00  0.00    -0.241 OA
ATOM     24  O   LIG d   1      -6.897  89.704 114.930  0.00  0.00    -0.241 OA
ENDBRANCH   3  22
TORSDOF 7
ENDMDL
MODEL 4
REMARK VINA RESULT:      -5.1     11.602     14.485
REMARK  7 active torsions:
REMARK  status: ('A' for Active; 'I' for Inactive)
REMARK    1  A    between atoms: C_2  and  C_3 
REMARK    2  A    between atoms: C_3  and  O_6 
REMARK    3  A    between atoms: C_3  and  C_4 
REMARK    4  A    between atoms: C_7  and  O_6 
REMARK    5  A    between atoms: C_9  and  C_10 
REMARK    6  A    between atoms: N_15  and  C_14 
REMARK    7  A    between atoms: N_20  and  C_19 
REMARK       I    between atoms: C_22  and  N_20 
ROOT
ATOM      1  C   LIG d   1      -9.755  79.690 118.900  0.00  0.00     0.161 C 
ATOM      2  C   LIG d   1      -8.652  79.925 118.062  0.00  0.00     0.016 C 
ATOM      3  C   LIG d   1      -7.505  80.645 118.469  0.00  0.00     0.038 C 
ATOM      4  C   LIG d   1      -7.319  81.053 119.799  0.00  0.00     0.028 C 
ATOM      5  C   LIG d   1      -8.625  81.279 120.552  0.00  0.00    -0.047 C 
ATOM      6  C   LIG d   1      -9.522  80.031 120.387  0.00  0.00     0.091 C 
ENDROOT
BRANCH   1   7
ATOM      7  O   LIG d   1     -10.192  78.324 118.762  0.00  0.00    -0.368 OA
BRANCH   7   8
ATOM      8  C   LIG d   1      -9.147  77.320 118.738  0.00  0.00     0.119 C 
BRANCH   8   9
ATOM      9  C   LIG d   1      -9.325  76.496 117.448  0.00  0.00     0.028 C 
ATOM     10  C   LIG d   1      -8.011  75.851 116.977  0.00  0.00     0.006 C 
ENDBRANCH   8   9
BRANCH   8  11
ATOM     11  C   LIG d   1      -9.310  76.319 119.885  0.00  0.00     0.028 C 
ATOM     12  C   LIG d   1      -8.359  76.597 121.060  0.00  0.00     0.006 C 
ENDBRANCH   8  11
ENDBRANCH   7   8
ENDBRANCH   1   7
BRANCH   6  13
ATOM     13  N   LIG d   1     -10.855  80.203 121.023  0.00  0.00    -0.311 N 
ATOM     14  C   LIG d   1     -11.127  79.820 122.269  0.00  0.00     0.210 C 
ATOM     15  C   LIG d   1     -12.568  80.071 122.722  0.00  0.00     0.109 C 
ATOM     16  O   LIG d   1     -10.302  79.327 123.053  0.00  0.00    -0.276 OA
ATOM     17  H   LIG d   1     -11.574  80.624 120.468  0.00  0.00     0.149 HD
ENDBRANCH   6  13
BRANCH   5  18
ATOM     18  N   LIG d   1      -8.285  81.565 121.958  0.00  0.00     0.381 N 
ATOM     19  H   LIG d   1      -7.637  80.882 122.296  0.00  0.00    -0.090 HD
ATOM     20  H   LIG d   1      -9.121  81.507 122.513  0.00  0.00    -0.090 HD
ATOM     21  H   LIG d   1      -7.889  82.476 122.035  0.00  0.00    -0.090 HD
ENDBRANCH   5  18
BRANCH   3  22
ATOM     22  C   LIG d   1      -6.547  80.999 117.531  0.00  0.00     0.382 C 
ATOM     23  O   LIG d   1      -5.371  80.579 117.647  0.00  0.00    -0.241 OA
ATOM     24  O   LIG d   1      -6.834  81.769 116.595  0.00  0.00    -0.241 OA
ENDBRANCH   3  22
TORSDOF 7
ENDMDL
MODEL 5
REMARK VINA RESULT:      -5.1      2.267      4.266
REMARK  7 active torsions:
REMARK  status: ('A' for Active; 'I' for Inactive)
REMARK    1  A    between atoms: C_2  and  C_3 
REMARK    2  A    between atoms: C_3  and  O_6 
REMARK    3  A    between atoms: C_3  and  C_4 
REMARK    4  A    between atoms: C_7  and  O_6 
REMARK    5  A    between atoms: C_9  and  C_10 
REMARK    6  A    between atoms: N_15  and  C_14 
REMARK    7  A    between atoms: N_20  and  C_19 
REMARK       I    between atoms: C_22  and  N_20 
ROOT
ATOM      1  C   LIG d   1      -3.838  91.080 117.787  0.00  0.00     0.161 C 
ATOM      2  C   LIG d   1      -4.661  90.333 116.927  0.00  0.00     0.016 C 
ATOM      3  C   LIG d   1      -5.900  90.803 116.435  0.00  0.00     0.038 C 
ATOM      4  C   LIG d   1      -6.332  92.121 116.649  0.00  0.00     0.028 C 
ATOM      5  C   LIG d   1      -5.775  92.741 117.925  0.00  0.00    -0.047 C 
ATOM      6  C   LIG d   1      -4.239  92.561 117.942  0.00  0.00     0.091 C 
ENDROOT
BRANCH   1   7
ATOM      7  O   LIG d   1      -2.465  90.974 117.361  0.00  0.00    -0.368 OA
BRANCH   7   8
ATOM      8  C   LIG d   1      -1.571  90.273 118.261  0.00  0.00     0.119 C 
BRANCH   8   9
ATOM      9  C   LIG d   1      -0.136  90.478 117.739  0.00  0.00     0.028 C 
ATOM     10  C   LIG d   1       0.187  91.958 117.473  0.00  0.00     0.006 C 
ENDBRANCH   8   9
BRANCH   8  11
ATOM     11  C   LIG d   1      -1.808  88.761 118.215  0.00  0.00     0.028 C 
ATOM     12  C   LIG d   1      -2.182  88.174 119.585  0.00  0.00     0.006 C 
ENDBRANCH   8  11
ENDBRANCH   7   8
ENDBRANCH   1   7
BRANCH   6  13
ATOM     13  N   LIG d   1      -3.623  93.066 119.197  0.00  0.00    -0.311 N 
ATOM     14  C   LIG d   1      -2.626  93.949 119.221  0.00  0.00     0.210 C 
ATOM     15  C   LIG d   1      -2.124  94.319 120.620  0.00  0.00     0.109 C 
ATOM     16  O   LIG d   1      -2.132  94.485 118.217  0.00  0.00    -0.276 OA
ATOM     17  H   LIG d   1      -3.985  92.707 120.059  0.00  0.00     0.149 HD
ENDBRANCH   6  13
BRANCH   5  18
ATOM     18  N   LIG d   1      -6.192  94.155 117.953  0.00  0.00     0.381 N 
ATOM     19  H   LIG d   1      -5.630  94.687 117.318  0.00  0.00    -0.090 HD
ATOM     20  H   LIG d   1      -6.050  94.518 118.879  0.00  0.00    -0.090 HD
ATOM     21  H   LIG d   1      -7.153  94.232 117.701  0.00  0.00    -0.090 HD
ENDBRANCH   5  18
BRANCH   3  22
ATOM     22  C   LIG d   1      -6.741  89.938 115.751  0.00  0.00     0.382 C 
ATOM     23  O   LIG d   1      -7.705  89.399 116.347  0.00  0.00    -0.241 OA
ATOM     24  O   LIG d   1      -6.522  89.654 114.559  0.00  0.00    -0.241 OA
ENDBRANCH   3  22
TORSDOF 7
ENDMDL
MODEL 6
REMARK VINA RESULT:      -5.0      2.324      3.827
REMARK  7 active torsions:
REMARK  status: ('A' for Active; 'I' for Inactive)
REMARK    1  A    between atoms: C_2  and  C_3 
REMARK    2  A    between atoms: C_3  and  O_6 
REMARK    3  A    between atoms: C_3  and  C_4 
REMARK    4  A    between atoms: C_7  and  O_6 
REMARK    5  A    between atoms: C_9  and  C_10 
REMARK    6  A    between atoms: N_15  and  C_14 
REMARK    7  A    between atoms: N_20  and  C_19 
REMARK       I    between atoms: C_22  and  N_20 
ROOT
ATOM      1  C   LIG d   1      -4.327  90.953 117.819  0.00  0.00     0.161 C 
ATOM      2  C   LIG d   1      -5.285  90.467 116.914  0.00  0.00     0.016 C 
ATOM      3  C   LIG d   1      -6.368  91.240 116.436  0.00  0.00     0.038 C 
ATOM      4  C   LIG d   1      -6.482  92.610 116.717  0.00  0.00     0.028 C 
ATOM      5  C   LIG d   1      -5.822  93.015 118.031  0.00  0.00    -0.047 C 
ATOM      6  C   LIG d   1      -4.372  92.478 118.050  0.00  0.00     0.091 C 
ENDROOT
BRANCH   1   7
ATOM      7  O   LIG d   1      -3.009  90.549 117.401  0.00  0.00    -0.368 OA
BRANCH   7   8
ATOM      8  C   LIG d   1      -2.516  89.306 117.960  0.00  0.00     0.119 C 
BRANCH   8   9
ATOM      9  C   LIG d   1      -2.799  89.335 119.474  0.00  0.00     0.028 C 
ATOM     10  C   LIG d   1      -2.392  88.027 120.172  0.00  0.00     0.006 C 
ENDBRANCH   8   9
BRANCH   8  11
ATOM     11  C   LIG d   1      -0.993  89.204 117.834  0.00  0.00     0.028 C 
ATOM     12  C   LIG d   1      -0.333  90.545 117.473  0.00  0.00     0.006 C 
ENDBRANCH   8  11
ENDBRANCH   7   8
ENDBRANCH   1   7
BRANCH   6  13
ATOM     13  N   LIG d   1      -3.681  92.759 119.336  0.00  0.00    -0.311 N 
ATOM     14  C   LIG d   1      -2.485  93.340 119.414  0.00  0.00     0.210 C 
ATOM     15  C   LIG d   1      -1.945  93.518 120.836  0.00  0.00     0.109 C 
ATOM     16  O   LIG d   1      -1.835  93.754 118.442  0.00  0.00    -0.276 OA
ATOM     17  H   LIG d   1      -4.152  92.484 120.176  0.00  0.00     0.149 HD
ENDBRANCH   6  13
BRANCH   5  18
ATOM     18  N   LIG d   1      -5.895  94.485 118.131  0.00  0.00     0.381 N 
ATOM     19  H   LIG d   1      -5.900  94.759 119.093  0.00  0.00    -0.090 HD
ATOM     20  H   LIG d   1      -6.752  94.797 117.710  0.00  0.00    -0.090 HD
ATOM     21  H   LIG d   1      -5.118  94.898 117.664  0.00  0.00    -0.090 HD
ENDBRANCH   5  18
BRANCH   3  22
ATOM     22  C   LIG d   1      -7.374  90.633 115.700  0.00  0.00     0.382 C 
ATOM     23  O   LIG d   1      -7.951  91.267 114.785  0.00  0.00    -0.241 OA
ATOM     24  O   LIG d   1      -7.741  89.473 115.969  0.00  0.00    -0.241 OA
ENDBRANCH   3  22
TORSDOF 7
ENDMDL
MODEL 7
REMARK VINA RESULT:      -4.9      1.774      4.784
REMARK  7 active torsions:
REMARK  status: ('A' for Active; 'I' for Inactive)
REMARK    1  A    between atoms: C_2  and  C_3 
REMARK    2  A    between atoms: C_3  and  O_6 
REMARK    3  A    between atoms: C_3  and  C_4 
REMARK    4  A    between atoms: C_7  and  O_6 
REMARK    5  A    between atoms: C_9  and  C_10 
REMARK    6  A    between atoms: N_15  and  C_14 
REMARK    7  A    between atoms: N_20  and  C_19 
REMARK       I    between atoms: C_22  and  N_20 
ROOT
ATOM      1  C   LIG d   1      -5.910  92.019 119.155  0.00  0.00     0.161 C 
ATOM      2  C   LIG d   1      -4.762  92.605 119.714  0.00  0.00     0.016 C 
ATOM      3  C   LIG d   1      -3.474  92.496 119.139  0.00  0.00     0.038 C 
ATOM      4  C   LIG d   1      -3.273  91.918 117.877  0.00  0.00     0.028 C 
ATOM      5  C   LIG d   1      -4.322  90.872 117.515  0.00  0.00    -0.047 C 
ATOM      6  C   LIG d   1      -5.728  91.479 117.721  0.00  0.00     0.091 C 
ENDROOT
BRANCH   1   7
ATOM      7  O   LIG d   1      -7.007  92.953 119.204  0.00  0.00    -0.368 OA
BRANCH   7   8
ATOM      8  C   LIG d   1      -6.698  94.273 119.714  0.00  0.00     0.119 C 
BRANCH   8   9
ATOM      9  C   LIG d   1      -7.801  94.649 120.723  0.00  0.00     0.028 C 
ATOM     10  C   LIG d   1      -8.554  93.418 121.255  0.00  0.00     0.006 C 
ENDBRANCH   8   9
BRANCH   8  11
ATOM     11  C   LIG d   1      -6.781  95.331 118.610  0.00  0.00     0.028 C 
ATOM     12  C   LIG d   1      -6.036  96.627 118.969  0.00  0.00     0.006 C 
ENDBRANCH   8  11
ENDBRANCH   7   8
ENDBRANCH   1   7
BRANCH   6  13
ATOM     13  N   LIG d   1      -6.813  90.495 117.470  0.00  0.00    -0.311 N 
ATOM     14  C   LIG d   1      -7.401  90.339 116.286  0.00  0.00     0.210 C 
ATOM     15  C   LIG d   1      -8.511  89.283 116.249  0.00  0.00     0.109 C 
ATOM     16  O   LIG d   1      -7.088  90.952 115.254  0.00  0.00    -0.276 OA
ATOM     17  H   LIG d   1      -7.108  89.934 118.245  0.00  0.00     0.149 HD
ENDBRANCH   6  13
BRANCH   5  18
ATOM     18  N   LIG d   1      -4.071  90.453 116.123  0.00  0.00     0.381 N 
ATOM     19  H   LIG d   1      -3.086  90.398 115.958  0.00  0.00    -0.090 HD
ATOM     20  H   LIG d   1      -4.457  91.141 115.502  0.00  0.00    -0.090 HD
ATOM     21  H   LIG d   1      -4.494  89.567 115.953  0.00  0.00    -0.090 HD
ENDBRANCH   5  18
BRANCH   3  22
ATOM     22  C   LIG d   1      -2.366  92.934 119.848  0.00  0.00     0.382 C 
ATOM     23  O   LIG d   1      -1.967  92.291 120.849  0.00  0.00    -0.241 OA
ATOM     24  O   LIG d   1      -1.787  93.989 119.526  0.00  0.00    -0.241 OA
ENDBRANCH   3  22
TORSDOF 7
ENDMDL
MODEL 8
REMARK VINA RESULT:      -4.8     12.000     14.509
REMARK  7 active torsions:
REMARK  status: ('A' for Active; 'I' for Inactive)
REMARK    1  A    between atoms: C_2  and  C_3 
REMARK    2  A    between atoms: C_3  and  O_6 
REMARK    3  A    between atoms: C_3  and  C_4 
REMARK    4  A    between atoms: C_7  and  O_6 
REMARK    5  A    between atoms: C_9  and  C_10 
REMARK    6  A    between atoms: N_15  and  C_14 
REMARK    7  A    between atoms: N_20  and  C_19 
REMARK       I    between atoms: C_22  and  N_20 
ROOT
ATOM      1  C   LIG d   1      -7.047  78.524 117.915  0.00  0.00     0.161 C 
ATOM      2  C   LIG d   1      -6.878  77.513 116.954  0.00  0.00     0.016 C 
ATOM      3  C   LIG d   1      -7.645  76.325 116.931  0.00  0.00     0.038 C 
ATOM      4  C   LIG d   1      -8.743  76.134 117.783  0.00  0.00     0.028 C 
ATOM      5  C   LIG d   1      -8.631  76.903 119.096  0.00  0.00    -0.047 C 
ATOM      6  C   LIG d   1      -8.314  78.384 118.785  0.00  0.00     0.091 C 
ENDROOT
BRANCH   1   7
ATOM      7  O   LIG d   1      -7.019  79.815 117.275  0.00  0.00    -0.368 OA
BRANCH   7   8
ATOM      8  C   LIG d   1      -5.881  80.656 117.588  0.00  0.00     0.119 C 
BRANCH   8   9
ATOM      9  C   LIG d   1      -4.882  79.803 118.394  0.00  0.00     0.028 C 
ATOM     10  C   LIG d   1      -3.587  79.522 117.613  0.00  0.00     0.006 C 
ENDBRANCH   8   9
BRANCH   8  11
ATOM     11  C   LIG d   1      -6.277  81.805 118.519  0.00  0.00     0.028 C 
ATOM     12  C   LIG d   1      -5.485  81.804 119.837  0.00  0.00     0.006 C 
ENDBRANCH   8  11
ENDBRANCH   7   8
ENDBRANCH   1   7
BRANCH   6  13
ATOM     13  N   LIG d   1      -8.105  79.190 120.016  0.00  0.00    -0.311 N 
ATOM     14  C   LIG d   1      -9.075  79.880 120.613  0.00  0.00     0.210 C 
ATOM     15  C   LIG d   1      -8.641  80.658 121.859  0.00  0.00     0.109 C 
ATOM     16  O   LIG d   1     -10.260  79.895 120.249  0.00  0.00    -0.276 OA
ATOM     17  H   LIG d   1      -7.180  79.208 120.398  0.00  0.00     0.149 HD
ENDBRANCH   6  13
BRANCH   5  18
ATOM     18  N   LIG d   1      -9.900  76.725 119.826  0.00  0.00     0.381 N 
ATOM     19  H   LIG d   1     -10.003  77.449 120.508  0.00  0.00    -0.090 HD
ATOM     20  H   LIG d   1      -9.879  75.842 120.305  0.00  0.00    -0.090 HD
ATOM     21  H   LIG d   1     -10.666  76.747 119.189  0.00  0.00    -0.090 HD
ENDBRANCH   5  18
BRANCH   3  22
ATOM     22  C   LIG d   1      -7.290  75.294 116.074  0.00  0.00     0.382 C 
ATOM     23  O   LIG d   1      -7.456  74.101 116.425  0.00  0.00    -0.241 OA
ATOM     24  O   LIG d   1      -6.764  75.542 114.972  0.00  0.00    -0.241 OA
ENDBRANCH   3  22
TORSDOF 7
ENDMDL
MODEL 9
REMARK VINA RESULT:      -4.8     11.604     14.261
REMARK  7 active torsions:
REMARK  status: ('A' for Active; 'I' for Inactive)
REMARK    1  A    between atoms: C_2  and  C_3 
REMARK    2  A    between atoms: C_3  and  O_6 
REMARK    3  A    between atoms: C_3  and  C_4 
REMARK    4  A    between atoms: C_7  and  O_6 
REMARK    5  A    between atoms: C_9  and  C_10 
REMARK    6  A    between atoms: N_15  and  C_14 
REMARK    7  A    between atoms: N_20  and  C_19 
REMARK       I    between atoms: C_22  and  N_20 
ROOT
ATOM      1  C   LIG d   1      -7.133  78.816 119.343  0.00  0.00     0.161 C 
ATOM      2  C   LIG d   1      -8.275  79.236 120.045  0.00  0.00     0.016 C 
ATOM      3  C   LIG d   1      -8.911  80.480 119.823  0.00  0.00     0.038 C 
ATOM      4  C   LIG d   1      -8.534  81.327 118.771  0.00  0.00     0.028 C 
ATOM      5  C   LIG d   1      -7.072  81.175 118.363  0.00  0.00    -0.047 C 
ATOM      6  C   LIG d   1      -6.774  79.678 118.115  0.00  0.00     0.091 C 
ENDROOT
BRANCH   1   7
ATOM      7  O   LIG d   1      -7.277  77.434 118.959  0.00  0.00    -0.368 OA
BRANCH   7   8
ATOM      8  C   LIG d   1      -8.633  76.928 118.895  0.00  0.00     0.119 C 
BRANCH   8   9
ATOM      9  C   LIG d   1      -8.680  75.623 119.713  0.00  0.00     0.028 C 
ATOM     10  C   LIG d   1      -9.481  75.775 121.017  0.00  0.00     0.006 C 
ENDBRANCH   8   9
BRANCH   8  11
ATOM     11  C   LIG d   1      -9.011  76.526 117.467  0.00  0.00     0.028 C 
ATOM     12  C   LIG d   1      -8.067  75.465 116.877  0.00  0.00     0.006 C 
ENDBRANCH   8  11
ENDBRANCH   7   8
ENDBRANCH   1   7
BRANCH   6  13
ATOM     13  N   LIG d   1      -5.344  79.431 117.794  0.00  0.00    -0.311 N 
ATOM     14  C   LIG d   1      -4.941  78.581 116.851  0.00  0.00     0.210 C 
ATOM     15  C   LIG d   1      -3.422  78.460 116.696  0.00  0.00     0.109 C 
ATOM     16  O   LIG d   1      -5.698  77.939 116.107  0.00  0.00    -0.276 OA
ATOM     17  H   LIG d   1      -4.663  79.934 118.328  0.00  0.00     0.149 HD
ENDBRANCH   6  13
BRANCH   5  18
ATOM     18  N   LIG d   1      -6.852  82.014 117.170  0.00  0.00     0.381 N 
ATOM     19  H   LIG d   1      -7.637  82.619 117.032  0.00  0.00    -0.090 HD
ATOM     20  H   LIG d   1      -6.767  81.418 116.365  0.00  0.00    -0.090 HD
ATOM     21  H   LIG d   1      -6.023  82.554 117.282  0.00  0.00    -0.090 HD
ENDBRANCH   5  18
BRANCH   3  22
ATOM     22  C   LIG d   1      -9.911  80.904 120.685  0.00  0.00     0.382 C 
ATOM     23  O   LIG d   1      -9.867  82.057 121.176  0.00  0.00    -0.241 OA
ATOM     24  O   LIG d   1     -10.832  80.132 121.012  0.00  0.00    -0.241 OA
ENDBRANCH   3  22
TORSDOF 7
ENDMDL
