MODEL 1
REMARK VINA RESULT:      -5.5      0.000      0.000
REMARK  7 active torsions:
REMARK  status: ('A' for Active; 'I' for Inactive)
REMARK    1  A    between atoms: C_2  and  C_3 
REMARK    2  A    between atoms: C_3  and  O_6 
REMARK    3  A    between atoms: C_3  and  C_4 
REMARK    4  A    between atoms: C_7  and  O_6 
REMARK    5  A    between atoms: C_9  and  C_10 
REMARK    6  A    between atoms: N_15  and  C_14 
REMARK    7  A    between atoms: N_20  and  C_19 
REMARK       I    between atoms: C_22  and  N_20 
ROOT
ATOM      1  C   LIG d   1      -0.615  60.699 120.774  0.00  0.00     0.161 C 
ATOM      2  C   LIG d   1       0.094  61.430 121.742  0.00  0.00     0.016 C 
ATOM      3  C   LIG d   1       1.489  61.649 121.685  0.00  0.00     0.038 C 
ATOM      4  C   LIG d   1       2.253  61.278 120.568  0.00  0.00     0.028 C 
ATOM      5  C   LIG d   1       1.670  60.096 119.801  0.00  0.00    -0.047 C 
ATOM      6  C   LIG d   1       0.183  60.382 119.491  0.00  0.00     0.091 C 
ENDROOT
BRANCH   1   7
ATOM      7  O   LIG d   1      -1.840  61.383 120.445  0.00  0.00    -0.368 OA
BRANCH   7   8
ATOM      8  C   LIG d   1      -3.065  60.651 120.695  0.00  0.00     0.119 C 
BRANCH   8   9
ATOM      9  C   LIG d   1      -3.910  60.710 119.407  0.00  0.00     0.028 C 
ATOM     10  C   LIG d   1      -4.625  59.380 119.114  0.00  0.00     0.006 C 
ENDBRANCH   8   9
BRANCH   8  11
ATOM     11  C   LIG d   1      -3.915  61.337 121.769  0.00  0.00     0.028 C 
ATOM     12  C   LIG d   1      -3.954  60.551 123.089  0.00  0.00     0.006 C 
ENDBRANCH   8  11
ENDBRANCH   7   8
ENDBRANCH   1   7
BRANCH   6  13
ATOM     13  N   LIG d   1      -0.486  59.239 118.817  0.00  0.00    -0.311 N 
ATOM     14  C   LIG d   1      -0.981  59.304 117.582  0.00  0.00     0.210 C 
ATOM     15  C   LIG d   1      -1.647  58.018 117.084  0.00  0.00     0.109 C 
ATOM     16  O   LIG d   1      -0.903  60.295 116.840  0.00  0.00    -0.276 OA
ATOM     17  H   LIG d   1      -0.565  58.386 119.335  0.00  0.00     0.149 HD
ENDBRANCH   6  13
BRANCH   5  18
ATOM     18  N   LIG d   1       2.487  59.904 118.588  0.00  0.00     0.381 N 
ATOM     19  H   LIG d   1       1.902  59.938 117.777  0.00  0.00    -0.090 HD
ATOM     20  H   LIG d   1       2.920  58.999 118.628  0.00  0.00    -0.090 HD
ATOM     21  H   LIG d   1       3.186  60.613 118.533  0.00  0.00    -0.090 HD
ENDBRANCH   5  18
BRANCH   3  22
ATOM     22  C   LIG d   1       2.142  62.211 122.771  0.00  0.00     0.382 C 
ATOM     23  O   LIG d   1       1.690  62.042 123.930  0.00  0.00    -0.241 OA
ATOM     24  O   LIG d   1       3.152  62.921 122.604  0.00  0.00    -0.241 OA
ENDBRANCH   3  22
TORSDOF 7
ENDMDL
MODEL 2
REMARK VINA RESULT:      -5.4     31.349     32.369
REMARK  7 active torsions:
REMARK  status: ('A' for Active; 'I' for Inactive)
REMARK    1  A    between atoms: C_2  and  C_3 
REMARK    2  A    between atoms: C_3  and  O_6 
REMARK    3  A    between atoms: C_3  and  C_4 
REMARK    4  A    between atoms: C_7  and  O_6 
REMARK    5  A    between atoms: C_9  and  C_10 
REMARK    6  A    between atoms: N_15  and  C_14 
REMARK    7  A    between atoms: N_20  and  C_19 
REMARK       I    between atoms: C_22  and  N_20 
ROOT
ATOM      1  C   LIG d   1      -5.416  92.485 117.389  0.00  0.00     0.161 C 
ATOM      2  C   LIG d   1      -6.475  91.620 117.067  0.00  0.00     0.016 C 
ATOM      3  C   LIG d   1      -6.289  90.281 116.655  0.00  0.00     0.038 C 
ATOM      4  C   LIG d   1      -5.028  89.665 116.682  0.00  0.00     0.028 C 
ATOM      5  C   LIG d   1      -3.872  90.646 116.515  0.00  0.00    -0.047 C 
ATOM      6  C   LIG d   1      -4.041  91.798 117.531  0.00  0.00     0.091 C 
ENDROOT
BRANCH   1   7
ATOM      7  O   LIG d   1      -5.734  93.223 118.585  0.00  0.00    -0.368 OA
BRANCH   7   8
ATOM      8  C   LIG d   1      -6.683  94.306 118.433  0.00  0.00     0.119 C 
BRANCH   8   9
ATOM      9  C   LIG d   1      -5.946  95.618 118.763  0.00  0.00     0.028 C 
ATOM     10  C   LIG d   1      -4.640  95.378 119.539  0.00  0.00     0.006 C 
ENDBRANCH   8   9
BRANCH   8  11
ATOM     11  C   LIG d   1      -7.813  94.206 119.462  0.00  0.00     0.028 C 
ATOM     12  C   LIG d   1      -8.984  95.153 119.155  0.00  0.00     0.006 C 
ENDBRANCH   8  11
ENDBRANCH   7   8
ENDBRANCH   1   7
BRANCH   6  13
ATOM     13  N   LIG d   1      -2.998  92.846 117.379  0.00  0.00    -0.311 N 
ATOM     14  C   LIG d   1      -1.864  92.858 118.077  0.00  0.00     0.210 C 
ATOM     15  C   LIG d   1      -0.934  94.038 117.781  0.00  0.00     0.109 C 
ATOM     16  O   LIG d   1      -1.525  91.985 118.891  0.00  0.00    -0.276 OA
ATOM     17  H   LIG d   1      -3.177  93.575 116.717  0.00  0.00     0.149 HD
ENDBRANCH   6  13
BRANCH   5  18
ATOM     18  N   LIG d   1      -2.618  89.891 116.700  0.00  0.00     0.381 N 
ATOM     19  H   LIG d   1      -2.808  88.909 116.682  0.00  0.00    -0.090 HD
ATOM     20  H   LIG d   1      -2.230  90.121 117.598  0.00  0.00    -0.090 HD
ATOM     21  H   LIG d   1      -1.970  90.125 115.981  0.00  0.00    -0.090 HD
ENDBRANCH   5  18
BRANCH   3  22
ATOM     22  C   LIG d   1      -7.366  89.554 116.171  0.00  0.00     0.382 C 
ATOM     23  O   LIG d   1      -8.123  88.949 116.968  0.00  0.00    -0.241 OA
ATOM     24  O   LIG d   1      -7.565  89.460 114.945  0.00  0.00    -0.241 OA
ENDBRANCH   3  22
TORSDOF 7
ENDMDL
MODEL 3
REMARK VINA RESULT:      -5.3     30.966     31.979
REMARK  7 active torsions:
REMARK  status: ('A' for Active; 'I' for Inactive)
REMARK    1  A    between atoms: C_2  and  C_3 
REMARK    2  A    between atoms: C_3  and  O_6 
REMARK    3  A    between atoms: C_3  and  C_4 
REMARK    4  A    between atoms: C_7  and  O_6 
REMARK    5  A    between atoms: C_9  and  C_10 
REMARK    6  A    between atoms: N_15  and  C_14 
REMARK    7  A    between atoms: N_20  and  C_19 
REMARK       I    between atoms: C_22  and  N_20 
ROOT
ATOM      1  C   LIG d   1      -5.212  92.533 117.146  0.00  0.00     0.161 C 
ATOM      2  C   LIG d   1      -6.312  91.701 116.877  0.00  0.00     0.016 C 
ATOM      3  C   LIG d   1      -6.197  90.313 116.635  0.00  0.00     0.038 C 
ATOM      4  C   LIG d   1      -4.983  89.630 116.795  0.00  0.00     0.028 C 
ATOM      5  C   LIG d   1      -3.758  90.512 116.570  0.00  0.00    -0.047 C 
ATOM      6  C   LIG d   1      -3.892  91.787 117.434  0.00  0.00     0.091 C 
ENDROOT
BRANCH   1   7
ATOM      7  O   LIG d   1      -5.528  93.428 118.230  0.00  0.00    -0.368 OA
BRANCH   7   8
ATOM      8  C   LIG d   1      -6.448  92.920 119.228  0.00  0.00     0.119 C 
BRANCH   8   9
ATOM      9  C   LIG d   1      -7.530  93.994 119.449  0.00  0.00     0.028 C 
ATOM     10  C   LIG d   1      -7.506  95.084 118.365  0.00  0.00     0.006 C 
ENDBRANCH   8   9
BRANCH   8  11
ATOM     11  C   LIG d   1      -5.760  92.751 120.586  0.00  0.00     0.028 C 
ATOM     12  C   LIG d   1      -5.091  91.377 120.748  0.00  0.00     0.006 C 
ENDBRANCH   8  11
ENDBRANCH   7   8
ENDBRANCH   1   7
BRANCH   6  13
ATOM     13  N   LIG d   1      -2.777  92.743 117.210  0.00  0.00    -0.311 N 
ATOM     14  C   LIG d   1      -2.047  93.261 118.195  0.00  0.00     0.210 C 
ATOM     15  C   LIG d   1      -0.959  94.242 117.747  0.00  0.00     0.109 C 
ATOM     16  O   LIG d   1      -2.176  92.978 119.396  0.00  0.00    -0.276 OA
ATOM     17  H   LIG d   1      -2.583  93.003 116.263  0.00  0.00     0.149 HD
ENDBRANCH   6  13
BRANCH   5  18
ATOM     18  N   LIG d   1      -2.565  89.710 116.903  0.00  0.00     0.381 N 
ATOM     19  H   LIG d   1      -2.841  88.870 117.369  0.00  0.00    -0.090 HD
ATOM     20  H   LIG d   1      -1.982  90.240 117.526  0.00  0.00    -0.090 HD
ATOM     21  H   LIG d   1      -2.061  89.488 116.072  0.00  0.00    -0.090 HD
ENDBRANCH   5  18
BRANCH   3  22
ATOM     22  C   LIG d   1      -7.300  89.600 116.189  0.00  0.00     0.382 C 
ATOM     23  O   LIG d   1      -8.045  89.018 117.014  0.00  0.00    -0.241 OA
ATOM     24  O   LIG d   1      -7.534  89.495 114.970  0.00  0.00    -0.241 OA
ENDBRANCH   3  22
TORSDOF 7
ENDMDL
MODEL 4
REMARK VINA RESULT:      -5.3      2.423      4.207
REMARK  7 active torsions:
REMARK  status: ('A' for Active; 'I' for Inactive)
REMARK    1  A    between atoms: C_2  and  C_3 
REMARK    2  A    between atoms: C_3  and  O_6 
REMARK    3  A    between atoms: C_3  and  C_4 
REMARK    4  A    between atoms: C_7  and  O_6 
REMARK    5  A    between atoms: C_9  and  C_10 
REMARK    6  A    between atoms: N_15  and  C_14 
REMARK    7  A    between atoms: N_20  and  C_19 
REMARK       I    between atoms: C_22  and  N_20 
ROOT
ATOM      1  C   LIG d   1      -1.810  61.274 119.919  0.00  0.00     0.161 C 
ATOM      2  C   LIG d   1      -0.457  61.099 119.586  0.00  0.00     0.016 C 
ATOM      3  C   LIG d   1       0.548  60.808 120.537  0.00  0.00     0.038 C 
ATOM      4  C   LIG d   1       0.241  60.521 121.875  0.00  0.00     0.028 C 
ATOM      5  C   LIG d   1      -1.047  61.181 122.356  0.00  0.00    -0.047 C 
ATOM      6  C   LIG d   1      -2.181  60.855 121.357  0.00  0.00     0.091 C 
ENDROOT
BRANCH   1   7
ATOM      7  O   LIG d   1      -2.641  60.584 118.966  0.00  0.00    -0.368 OA
BRANCH   7   8
ATOM      8  C   LIG d   1      -3.019  59.229 119.313  0.00  0.00     0.119 C 
BRANCH   8   9
ATOM      9  C   LIG d   1      -2.369  58.288 118.280  0.00  0.00     0.028 C 
ATOM     10  C   LIG d   1      -2.840  56.832 118.434  0.00  0.00     0.006 C 
ENDBRANCH   8   9
BRANCH   8  11
ATOM     11  C   LIG d   1      -4.528  59.015 119.163  0.00  0.00     0.028 C 
ATOM     12  C   LIG d   1      -5.267  60.282 118.703  0.00  0.00     0.006 C 
ENDBRANCH   8  11
ENDBRANCH   7   8
ENDBRANCH   1   7
BRANCH   6  13
ATOM     13  N   LIG d   1      -3.457  61.532 121.708  0.00  0.00    -0.311 N 
ATOM     14  C   LIG d   1      -4.453  60.930 122.355  0.00  0.00     0.210 C 
ATOM     15  C   LIG d   1      -5.688  61.803 122.599  0.00  0.00     0.109 C 
ATOM     16  O   LIG d   1      -4.418  59.765 122.778  0.00  0.00    -0.276 OA
ATOM     17  H   LIG d   1      -3.557  62.489 121.429  0.00  0.00     0.149 HD
ENDBRANCH   6  13
BRANCH   5  18
ATOM     18  N   LIG d   1      -1.319  60.687 123.720  0.00  0.00     0.381 N 
ATOM     19  H   LIG d   1      -1.499  61.460 124.330  0.00  0.00    -0.090 HD
ATOM     20  H   LIG d   1      -0.507  60.202 124.057  0.00  0.00    -0.090 HD
ATOM     21  H   LIG d   1      -2.103  60.073 123.710  0.00  0.00    -0.090 HD
ENDBRANCH   5  18
BRANCH   3  22
ATOM     22  C   LIG d   1       1.882  60.841 120.160  0.00  0.00     0.382 C 
ATOM     23  O   LIG d   1       2.205  60.584 118.975  0.00  0.00    -0.241 OA
ATOM     24  O   LIG d   1       2.770  61.081 121.000  0.00  0.00    -0.241 OA
ENDBRANCH   3  22
TORSDOF 7
ENDMDL
MODEL 5
REMARK VINA RESULT:      -5.1     30.339     31.575
REMARK  7 active torsions:
REMARK  status: ('A' for Active; 'I' for Inactive)
REMARK    1  A    between atoms: C_2  and  C_3 
REMARK    2  A    between atoms: C_3  and  O_6 
REMARK    3  A    between atoms: C_3  and  C_4 
REMARK    4  A    between atoms: C_7  and  O_6 
REMARK    5  A    between atoms: C_9  and  C_10 
REMARK    6  A    between atoms: N_15  and  C_14 
REMARK    7  A    between atoms: N_20  and  C_19 
REMARK       I    between atoms: C_22  and  N_20 
ROOT
ATOM      1  C   LIG d   1      -3.529  90.929 117.885  0.00  0.00     0.161 C 
ATOM      2  C   LIG d   1      -4.350  90.143 117.060  0.00  0.00     0.016 C 
ATOM      3  C   LIG d   1      -5.601  90.577 116.566  0.00  0.00     0.038 C 
ATOM      4  C   LIG d   1      -6.051  91.895 116.741  0.00  0.00     0.028 C 
ATOM      5  C   LIG d   1      -5.489  92.565 117.990  0.00  0.00    -0.047 C 
ATOM      6  C   LIG d   1      -3.951  92.409 117.996  0.00  0.00     0.091 C 
ENDROOT
BRANCH   1   7
ATOM      7  O   LIG d   1      -2.159  90.830 117.449  0.00  0.00    -0.368 OA
BRANCH   7   8
ATOM      8  C   LIG d   1      -1.261  90.108 118.326  0.00  0.00     0.119 C 
BRANCH   8   9
ATOM      9  C   LIG d   1      -0.142  91.081 118.745  0.00  0.00     0.028 C 
ATOM     10  C   LIG d   1       0.325  91.974 117.583  0.00  0.00     0.006 C 
ENDBRANCH   8   9
BRANCH   8  11
ATOM     11  C   LIG d   1      -0.553  88.970 117.585  0.00  0.00     0.028 C 
ATOM     12  C   LIG d   1      -1.488  87.793 117.268  0.00  0.00     0.006 C 
ENDBRANCH   8  11
ENDBRANCH   7   8
ENDBRANCH   1   7
BRANCH   6  13
ATOM     13  N   LIG d   1      -3.330  92.964 119.226  0.00  0.00    -0.311 N 
ATOM     14  C   LIG d   1      -2.435  93.950 119.215  0.00  0.00     0.210 C 
ATOM     15  C   LIG d   1      -1.905  94.358 120.593  0.00  0.00     0.109 C 
ATOM     16  O   LIG d   1      -2.054  94.548 118.197  0.00  0.00    -0.276 OA
ATOM     17  H   LIG d   1      -3.605  92.558 120.099  0.00  0.00     0.149 HD
ENDBRANCH   6  13
BRANCH   5  18
ATOM     18  N   LIG d   1      -5.928  93.973 117.976  0.00  0.00     0.381 N 
ATOM     19  H   LIG d   1      -6.420  94.184 118.821  0.00  0.00    -0.090 HD
ATOM     20  H   LIG d   1      -6.555  94.111 117.203  0.00  0.00    -0.090 HD
ATOM     21  H   LIG d   1      -5.139  94.575 117.884  0.00  0.00    -0.090 HD
ENDBRANCH   5  18
BRANCH   3  22
ATOM     22  C   LIG d   1      -6.436  89.677 115.921  0.00  0.00     0.382 C 
ATOM     23  O   LIG d   1      -6.266  89.427 114.703  0.00  0.00    -0.241 OA
ATOM     24  O   LIG d   1      -7.383  89.146 116.530  0.00  0.00    -0.241 OA
ENDBRANCH   3  22
TORSDOF 7
ENDMDL
MODEL 6
REMARK VINA RESULT:      -5.1     30.427     31.602
REMARK  7 active torsions:
REMARK  status: ('A' for Active; 'I' for Inactive)
REMARK    1  A    between atoms: C_2  and  C_3 
REMARK    2  A    between atoms: C_3  and  O_6 
REMARK    3  A    between atoms: C_3  and  C_4 
REMARK    4  A    between atoms: C_7  and  O_6 
REMARK    5  A    between atoms: C_9  and  C_10 
REMARK    6  A    between atoms: N_15  and  C_14 
REMARK    7  A    between atoms: N_20  and  C_19 
REMARK       I    between atoms: C_22  and  N_20 
ROOT
ATOM      1  C   LIG d   1      -4.089  91.103 118.014  0.00  0.00     0.161 C 
ATOM      2  C   LIG d   1      -4.545  90.281 116.969  0.00  0.00     0.016 C 
ATOM      3  C   LIG d   1      -5.634  90.618 116.132  0.00  0.00     0.038 C 
ATOM      4  C   LIG d   1      -6.249  91.878 116.188  0.00  0.00     0.028 C 
ATOM      5  C   LIG d   1      -6.153  92.539 117.558  0.00  0.00    -0.047 C 
ATOM      6  C   LIG d   1      -4.677  92.529 118.018  0.00  0.00     0.091 C 
ENDROOT
BRANCH   1   7
ATOM      7  O   LIG d   1      -2.649  91.154 118.002  0.00  0.00    -0.368 OA
BRANCH   7   8
ATOM      8  C   LIG d   1      -1.969  89.914 117.687  0.00  0.00     0.119 C 
BRANCH   8   9
ATOM      9  C   LIG d   1      -1.753  89.155 119.010  0.00  0.00     0.028 C 
ATOM     10  C   LIG d   1      -2.502  87.812 119.046  0.00  0.00     0.006 C 
ENDBRANCH   8   9
BRANCH   8  11
ATOM     11  C   LIG d   1      -0.565  90.173 117.134  0.00  0.00     0.028 C 
ATOM     12  C   LIG d   1      -0.095  91.620 117.356  0.00  0.00     0.006 C 
ENDBRANCH   8  11
ENDBRANCH   7   8
ENDBRANCH   1   7
BRANCH   6  13
ATOM     13  N   LIG d   1      -4.506  93.082 119.387  0.00  0.00    -0.311 N 
ATOM     14  C   LIG d   1      -3.630  94.040 119.686  0.00  0.00     0.210 C 
ATOM     15  C   LIG d   1      -3.601  94.451 121.162  0.00  0.00     0.109 C 
ATOM     16  O   LIG d   1      -2.897  94.610 118.865  0.00  0.00    -0.276 OA
ATOM     17  H   LIG d   1      -5.083  92.698 120.109  0.00  0.00     0.149 HD
ENDBRANCH   6  13
BRANCH   5  18
ATOM     18  N   LIG d   1      -6.712  93.899 117.437  0.00  0.00     0.381 N 
ATOM     19  H   LIG d   1      -6.323  94.489 118.145  0.00  0.00    -0.090 HD
ATOM     20  H   LIG d   1      -7.706  93.855 117.575  0.00  0.00    -0.090 HD
ATOM     21  H   LIG d   1      -6.510  94.271 116.536  0.00  0.00    -0.090 HD
ENDBRANCH   5  18
BRANCH   3  22
ATOM     22  C   LIG d   1      -6.143  89.674 115.254  0.00  0.00     0.382 C 
ATOM     23  O   LIG d   1      -7.381  89.481 115.190  0.00  0.00    -0.241 OA
ATOM     24  O   LIG d   1      -5.378  88.982 114.556  0.00  0.00    -0.241 OA
ENDBRANCH   3  22
TORSDOF 7
ENDMDL
MODEL 7
REMARK VINA RESULT:      -4.8     30.105     30.980
REMARK  7 active torsions:
REMARK  status: ('A' for Active; 'I' for Inactive)
REMARK    1  A    between atoms: C_2  and  C_3 
REMARK    2  A    between atoms: C_3  and  O_6 
REMARK    3  A    between atoms: C_3  and  C_4 
REMARK    4  A    between atoms: C_7  and  O_6 
REMARK    5  A    between atoms: C_9  and  C_10 
REMARK    6  A    between atoms: N_15  and  C_14 
REMARK    7  A    between atoms: N_20  and  C_19 
REMARK       I    between atoms: C_22  and  N_20 
ROOT
ATOM      1  C   LIG d   1      -4.247  91.141 118.653  0.00  0.00     0.161 C 
ATOM      2  C   LIG d   1      -4.048  91.919 119.806  0.00  0.00     0.016 C 
ATOM      3  C   LIG d   1      -4.766  93.106 120.077  0.00  0.00     0.038 C 
ATOM      4  C   LIG d   1      -5.846  93.517 119.282  0.00  0.00     0.028 C 
ATOM      5  C   LIG d   1      -5.751  93.038 117.837  0.00  0.00    -0.047 C 
ATOM      6  C   LIG d   1      -5.497  91.513 117.830  0.00  0.00     0.091 C 
ENDROOT
BRANCH   1   7
ATOM      7  O   LIG d   1      -4.277  89.744 119.006  0.00  0.00    -0.368 OA
BRANCH   7   8
ATOM      8  C   LIG d   1      -2.990  89.087 119.120  0.00  0.00     0.119 C 
BRANCH   8   9
ATOM      9  C   LIG d   1      -2.604  88.579 117.718  0.00  0.00     0.028 C 
ATOM     10  C   LIG d   1      -1.383  89.317 117.142  0.00  0.00     0.006 C 
ENDBRANCH   8   9
BRANCH   8  11
ATOM     11  C   LIG d   1      -3.080  87.834 119.995  0.00  0.00     0.028 C 
ATOM     12  C   LIG d   1      -1.785  87.006 119.986  0.00  0.00     0.006 C 
ENDBRANCH   8  11
ENDBRANCH   7   8
ENDBRANCH   1   7
BRANCH   6  13
ATOM     13  N   LIG d   1      -5.307  90.977 116.457  0.00  0.00    -0.311 N 
ATOM     14  C   LIG d   1      -5.954  89.910 115.991  0.00  0.00     0.210 C 
ATOM     15  C   LIG d   1      -5.596  89.513 114.555  0.00  0.00     0.109 C 
ATOM     16  O   LIG d   1      -6.813  89.273 116.619  0.00  0.00    -0.276 OA
ATOM     17  H   LIG d   1      -4.651  91.452 115.868  0.00  0.00     0.149 HD
ENDBRANCH   6  13
BRANCH   5  18
ATOM     18  N   LIG d   1      -7.004  93.419 117.158  0.00  0.00     0.381 N 
ATOM     19  H   LIG d   1      -6.942  94.364 116.837  0.00  0.00    -0.090 HD
ATOM     20  H   LIG d   1      -7.761  93.359 117.816  0.00  0.00    -0.090 HD
ATOM     21  H   LIG d   1      -7.174  92.809 116.389  0.00  0.00    -0.090 HD
ENDBRANCH   5  18
BRANCH   3  22
ATOM     22  C   LIG d   1      -4.380  93.917 121.133  0.00  0.00     0.382 C 
ATOM     23  O   LIG d   1      -3.625  94.898 120.927  0.00  0.00    -0.241 OA
ATOM     24  O   LIG d   1      -4.740  93.655 122.296  0.00  0.00    -0.241 OA
ENDBRANCH   3  22
TORSDOF 7
ENDMDL
MODEL 8
REMARK VINA RESULT:      -4.8     29.492     30.416
REMARK  7 active torsions:
REMARK  status: ('A' for Active; 'I' for Inactive)
REMARK    1  A    between atoms: C_2  and  C_3 
REMARK    2  A    between atoms: C_3  and  O_6 
REMARK    3  A    between atoms: C_3  and  C_4 
REMARK    4  A    between atoms: C_7  and  O_6 
REMARK    5  A    between atoms: C_9  and  C_10 
REMARK    6  A    between atoms: N_15  and  C_14 
REMARK    7  A    between atoms: N_20  and  C_19 
REMARK       I    between atoms: C_22  and  N_20 
ROOT
ATOM      1  C   LIG d   1      -3.507  90.687 117.315  0.00  0.00     0.161 C 
ATOM      2  C   LIG d   1      -2.688  91.279 118.290  0.00  0.00     0.016 C 
ATOM      3  C   LIG d   1      -3.177  92.142 119.298  0.00  0.00     0.038 C 
ATOM      4  C   LIG d   1      -4.550  92.351 119.492  0.00  0.00     0.028 C 
ATOM      5  C   LIG d   1      -5.375  92.175 118.221  0.00  0.00    -0.047 C 
ATOM      6  C   LIG d   1      -5.022  90.815 117.578  0.00  0.00     0.091 C 
ENDROOT
BRANCH   1   7
ATOM      7  O   LIG d   1      -3.143  89.302 117.147  0.00  0.00    -0.368 OA
BRANCH   7   8
ATOM      8  C   LIG d   1      -2.151  88.788 118.069  0.00  0.00     0.119 C 
BRANCH   8   9
ATOM      9  C   LIG d   1      -1.216  87.857 117.271  0.00  0.00     0.028 C 
ATOM     10  C   LIG d   1       0.263  88.052 117.644  0.00  0.00     0.006 C 
ENDBRANCH   8   9
BRANCH   8  11
ATOM     11  C   LIG d   1      -2.791  87.898 119.139  0.00  0.00     0.028 C 
ATOM     12  C   LIG d   1      -2.402  88.310 120.567  0.00  0.00     0.006 C 
ENDBRANCH   8  11
ENDBRANCH   7   8
ENDBRANCH   1   7
BRANCH   6  13
ATOM     13  N   LIG d   1      -5.723  90.600 116.285  0.00  0.00    -0.311 N 
ATOM     14  C   LIG d   1      -6.889  89.965 116.180  0.00  0.00     0.210 C 
ATOM     15  C   LIG d   1      -7.428  89.835 114.752  0.00  0.00     0.109 C 
ATOM     16  O   LIG d   1      -7.543  89.525 117.137  0.00  0.00    -0.276 OA
ATOM     17  H   LIG d   1      -5.277  90.952 115.461  0.00  0.00     0.149 HD
ENDBRANCH   6  13
BRANCH   5  18
ATOM     18  N   LIG d   1      -6.798  92.286 118.595  0.00  0.00     0.381 N 
ATOM     19  H   LIG d   1      -7.080  91.469 119.099  0.00  0.00    -0.090 HD
ATOM     20  H   LIG d   1      -7.350  92.346 117.758  0.00  0.00    -0.090 HD
ATOM     21  H   LIG d   1      -6.941  93.097 119.155  0.00  0.00    -0.090 HD
ENDBRANCH   5  18
BRANCH   3  22
ATOM     22  C   LIG d   1      -2.285  92.837 120.100  0.00  0.00     0.382 C 
ATOM     23  O   LIG d   1      -1.059  92.823 119.833  0.00  0.00    -0.241 OA
ATOM     24  O   LIG d   1      -2.685  93.441 121.113  0.00  0.00    -0.241 OA
ENDBRANCH   3  22
TORSDOF 7
ENDMDL
MODEL 9
REMARK VINA RESULT:      -4.7     31.312     32.081
REMARK  7 active torsions:
REMARK  status: ('A' for Active; 'I' for Inactive)
REMARK    1  A    between atoms: C_2  and  C_3 
REMARK    2  A    between atoms: C_3  and  O_6 
REMARK    3  A    between atoms: C_3  and  C_4 
REMARK    4  A    between atoms: C_7  and  O_6 
REMARK    5  A    between atoms: C_9  and  C_10 
REMARK    6  A    between atoms: N_15  and  C_14 
REMARK    7  A    between atoms: N_20  and  C_19 
REMARK       I    between atoms: C_22  and  N_20 
ROOT
ATOM      1  C   LIG d   1      -5.799  91.836 118.497  0.00  0.00     0.161 C 
ATOM      2  C   LIG d   1      -4.966  92.152 119.583  0.00  0.00     0.016 C 
ATOM      3  C   LIG d   1      -3.604  91.778 119.654  0.00  0.00     0.038 C 
ATOM      4  C   LIG d   1      -2.940  91.189 118.568  0.00  0.00     0.028 C 
ATOM      5  C   LIG d   1      -3.865  90.399 117.648  0.00  0.00    -0.047 C 
ATOM      6  C   LIG d   1      -5.064  91.292 117.255  0.00  0.00     0.091 C 
ENDROOT
BRANCH   1   7
ATOM      7  O   LIG d   1      -6.598  92.983 118.144  0.00  0.00    -0.368 OA
BRANCH   7   8
ATOM      8  C   LIG d   1      -6.619  94.066 119.106  0.00  0.00     0.119 C 
BRANCH   8   9
ATOM      9  C   LIG d   1      -7.994  94.041 119.801  0.00  0.00     0.028 C 
ATOM     10  C   LIG d   1      -7.885  93.746 121.307  0.00  0.00     0.006 C 
ENDBRANCH   8   9
BRANCH   8  11
ATOM     11  C   LIG d   1      -6.540  95.429 118.413  0.00  0.00     0.028 C 
ATOM     12  C   LIG d   1      -5.757  96.469 119.231  0.00  0.00     0.006 C 
ENDBRANCH   8  11
ENDBRANCH   7   8
ENDBRANCH   1   7
BRANCH   6  13
ATOM     13  N   LIG d   1      -6.061  90.568 116.423  0.00  0.00    -0.311 N 
ATOM     14  C   LIG d   1      -6.481  91.003 115.237  0.00  0.00     0.210 C 
ATOM     15  C   LIG d   1      -7.527  90.116 114.555  0.00  0.00     0.109 C 
ATOM     16  O   LIG d   1      -6.062  92.024 114.669  0.00  0.00    -0.276 OA
ATOM     17  H   LIG d   1      -6.430  89.714 116.794  0.00  0.00     0.149 HD
ENDBRANCH   6  13
BRANCH   5  18
ATOM     18  N   LIG d   1      -3.068  89.957 116.488  0.00  0.00     0.381 N 
ATOM     19  H   LIG d   1      -2.096  89.966 116.722  0.00  0.00    -0.090 HD
ATOM     20  H   LIG d   1      -3.216  90.598 115.728  0.00  0.00    -0.090 HD
ATOM     21  H   LIG d   1      -3.343  89.038 116.216  0.00  0.00    -0.090 HD
ENDBRANCH   5  18
BRANCH   3  22
ATOM     22  C   LIG d   1      -2.903  91.957 120.836  0.00  0.00     0.382 C 
ATOM     23  O   LIG d   1      -1.820  92.591 120.834  0.00  0.00    -0.241 OA
ATOM     24  O   LIG d   1      -3.317  91.455 121.898  0.00  0.00    -0.241 OA
ENDBRANCH   3  22
TORSDOF 7
ENDMDL
