MODEL 1
REMARK VINA RESULT:      -5.5      0.000      0.000
REMARK  7 active torsions:
REMARK  status: ('A' for Active; 'I' for Inactive)
REMARK    1  A    between atoms: C_2  and  C_3 
REMARK    2  A    between atoms: C_3  and  O_6 
REMARK    3  A    between atoms: C_3  and  C_4 
REMARK    4  A    between atoms: C_7  and  O_6 
REMARK    5  A    between atoms: C_9  and  C_10 
REMARK    6  A    between atoms: N_15  and  C_14 
REMARK    7  A    between atoms: N_20  and  C_19 
REMARK       I    between atoms: C_22  and  N_20 
ROOT
ATOM      1  C   LIG d   1      -6.392  92.889 117.935  0.00  0.00     0.161 C 
ATOM      2  C   LIG d   1      -6.971  91.774 117.307  0.00  0.00     0.016 C 
ATOM      3  C   LIG d   1      -6.237  90.627 116.927  0.00  0.00     0.038 C 
ATOM      4  C   LIG d   1      -4.892  90.454 117.287  0.00  0.00     0.028 C 
ATOM      5  C   LIG d   1      -4.142  91.768 117.477  0.00  0.00    -0.047 C 
ATOM      6  C   LIG d   1      -4.948  92.672 118.436  0.00  0.00     0.091 C 
ENDROOT
BRANCH   1   7
ATOM      7  O   LIG d   1      -7.235  93.335 119.016  0.00  0.00    -0.368 OA
BRANCH   7   8
ATOM      8  C   LIG d   1      -8.189  94.377 118.692  0.00  0.00     0.119 C 
BRANCH   8   9
ATOM      9  C   LIG d   1      -7.394  95.577 118.142  0.00  0.00     0.028 C 
ATOM     10  C   LIG d   1      -6.926  96.531 119.254  0.00  0.00     0.006 C 
ENDBRANCH   8   9
BRANCH   8  11
ATOM     11  C   LIG d   1      -8.892  94.898 119.949  0.00  0.00     0.028 C 
ATOM     12  C   LIG d   1     -10.070  94.012 120.384  0.00  0.00     0.006 C 
ENDBRANCH   8  11
ENDBRANCH   7   8
ENDBRANCH   1   7
BRANCH   6  13
ATOM     13  N   LIG d   1      -4.327  94.011 118.610  0.00  0.00    -0.311 N 
ATOM     14  C   LIG d   1      -3.503  94.312 119.612  0.00  0.00     0.210 C 
ATOM     15  C   LIG d   1      -2.989  95.756 119.616  0.00  0.00     0.109 C 
ATOM     16  O   LIG d   1      -3.123  93.512 120.480  0.00  0.00    -0.276 OA
ATOM     17  H   LIG d   1      -4.556  94.712 117.933  0.00  0.00     0.149 HD
ENDBRANCH   6  13
BRANCH   5  18
ATOM     18  N   LIG d   1      -2.795  91.443 117.983  0.00  0.00     0.381 N 
ATOM     19  H   LIG d   1      -2.438  92.213 118.514  0.00  0.00    -0.090 HD
ATOM     20  H   LIG d   1      -2.183  91.287 117.202  0.00  0.00    -0.090 HD
ATOM     21  H   LIG d   1      -2.833  90.627 118.553  0.00  0.00    -0.090 HD
ENDBRANCH   5  18
BRANCH   3  22
ATOM     22  C   LIG d   1      -6.839  89.655 116.142  0.00  0.00     0.382 C 
ATOM     23  O   LIG d   1      -6.322  89.324 115.048  0.00  0.00    -0.241 OA
ATOM     24  O   LIG d   1      -7.916  89.137 116.493  0.00  0.00    -0.241 OA
ENDBRANCH   3  22
TORSDOF 7
ENDMDL
MODEL 2
REMARK VINA RESULT:      -5.4      2.526      4.909
REMARK  7 active torsions:
REMARK  status: ('A' for Active; 'I' for Inactive)
REMARK    1  A    between atoms: C_2  and  C_3 
REMARK    2  A    between atoms: C_3  and  O_6 
REMARK    3  A    between atoms: C_3  and  C_4 
REMARK    4  A    between atoms: C_7  and  O_6 
REMARK    5  A    between atoms: C_9  and  C_10 
REMARK    6  A    between atoms: N_15  and  C_14 
REMARK    7  A    between atoms: N_20  and  C_19 
REMARK       I    between atoms: C_22  and  N_20 
ROOT
ATOM      1  C   LIG d   1      -4.342  90.840 117.811  0.00  0.00     0.161 C 
ATOM      2  C   LIG d   1      -5.227  90.116 116.995  0.00  0.00     0.016 C 
ATOM      3  C   LIG d   1      -6.401  90.671 116.436  0.00  0.00     0.038 C 
ATOM      4  C   LIG d   1      -6.692  92.040 116.531  0.00  0.00     0.028 C 
ATOM      5  C   LIG d   1      -6.091  92.702 117.766  0.00  0.00    -0.047 C 
ATOM      6  C   LIG d   1      -4.584  92.364 117.834  0.00  0.00     0.091 C 
ENDROOT
BRANCH   1   7
ATOM      7  O   LIG d   1      -2.982  90.555 117.429  0.00  0.00    -0.368 OA
BRANCH   7   8
ATOM      8  C   LIG d   1      -2.218  89.740 118.352  0.00  0.00     0.119 C 
BRANCH   8   9
ATOM      9  C   LIG d   1      -2.217  88.299 117.805  0.00  0.00     0.028 C 
ATOM     10  C   LIG d   1      -2.473  87.254 118.904  0.00  0.00     0.006 C 
ENDBRANCH   8   9
BRANCH   8  11
ATOM     11  C   LIG d   1      -2.904  89.654 119.718  0.00  0.00     0.028 C 
ATOM     12  C   LIG d   1      -2.092  90.328 120.836  0.00  0.00     0.006 C 
ENDBRANCH   8  11
ENDBRANCH   7   8
ENDBRANCH   1   7
BRANCH   6  13
ATOM     13  N   LIG d   1      -3.937  92.903 119.059  0.00  0.00    -0.311 N 
ATOM     14  C   LIG d   1      -2.824  93.634 119.038  0.00  0.00     0.210 C 
ATOM     15  C   LIG d   1      -2.312  94.073 120.414  0.00  0.00     0.109 C 
ATOM     16  O   LIG d   1      -2.229  93.988 118.009  0.00  0.00    -0.276 OA
ATOM     17  H   LIG d   1      -4.370  92.690 119.936  0.00  0.00     0.149 HD
ENDBRANCH   6  13
BRANCH   5  18
ATOM     18  N   LIG d   1      -6.354  94.150 117.668  0.00  0.00     0.381 N 
ATOM     19  H   LIG d   1      -5.612  94.660 118.105  0.00  0.00    -0.090 HD
ATOM     20  H   LIG d   1      -7.209  94.359 118.154  0.00  0.00    -0.090 HD
ATOM     21  H   LIG d   1      -6.433  94.419 116.712  0.00  0.00    -0.090 HD
ENDBRANCH   5  18
BRANCH   3  22
ATOM     22  C   LIG d   1      -7.319  89.845 115.805  0.00  0.00     0.382 C 
ATOM     23  O   LIG d   1      -7.902  88.944 116.456  0.00  0.00    -0.241 OA
ATOM     24  O   LIG d   1      -7.539  89.960 114.585  0.00  0.00    -0.241 OA
ENDBRANCH   3  22
TORSDOF 7
ENDMDL
MODEL 3
REMARK VINA RESULT:      -5.3      2.104      4.358
REMARK  7 active torsions:
REMARK  status: ('A' for Active; 'I' for Inactive)
REMARK    1  A    between atoms: C_2  and  C_3 
REMARK    2  A    between atoms: C_3  and  O_6 
REMARK    3  A    between atoms: C_3  and  C_4 
REMARK    4  A    between atoms: C_7  and  O_6 
REMARK    5  A    between atoms: C_9  and  C_10 
REMARK    6  A    between atoms: N_15  and  C_14 
REMARK    7  A    between atoms: N_20  and  C_19 
REMARK       I    between atoms: C_22  and  N_20 
ROOT
ATOM      1  C   LIG d   1      -5.327  91.643 119.014  0.00  0.00     0.161 C 
ATOM      2  C   LIG d   1      -5.400  90.707 117.969  0.00  0.00     0.016 C 
ATOM      3  C   LIG d   1      -6.250  90.855 116.849  0.00  0.00     0.038 C 
ATOM      4  C   LIG d   1      -6.979  92.032 116.622  0.00  0.00     0.028 C 
ATOM      5  C   LIG d   1      -7.322  92.788 117.901  0.00  0.00    -0.047 C 
ATOM      6  C   LIG d   1      -6.032  92.986 118.729  0.00  0.00     0.091 C 
ENDROOT
BRANCH   1   7
ATOM      7  O   LIG d   1      -3.950  91.866 119.374  0.00  0.00    -0.368 OA
BRANCH   7   8
ATOM      8  C   LIG d   1      -3.028  92.065 118.275  0.00  0.00     0.119 C 
BRANCH   8   9
ATOM      9  C   LIG d   1      -1.772  91.221 118.565  0.00  0.00     0.028 C 
ATOM     10  C   LIG d   1      -1.771  89.887 117.800  0.00  0.00     0.006 C 
ENDBRANCH   8   9
BRANCH   8  11
ATOM     11  C   LIG d   1      -2.537  93.515 118.214  0.00  0.00     0.028 C 
ATOM     12  C   LIG d   1      -2.546  94.205 119.587  0.00  0.00     0.006 C 
ENDBRANCH   8  11
ENDBRANCH   7   8
ENDBRANCH   1   7
BRANCH   6  13
ATOM     13  N   LIG d   1      -6.292  93.643 120.037  0.00  0.00    -0.311 N 
ATOM     14  C   LIG d   1      -6.163  94.954 120.237  0.00  0.00     0.210 C 
ATOM     15  C   LIG d   1      -6.461  95.422 121.665  0.00  0.00     0.109 C 
ATOM     16  O   LIG d   1      -5.861  95.777 119.360  0.00  0.00    -0.276 OA
ATOM     17  H   LIG d   1      -6.572  93.054 120.796  0.00  0.00     0.149 HD
ENDBRANCH   6  13
BRANCH   5  18
ATOM     18  N   LIG d   1      -7.959  94.060 117.510  0.00  0.00     0.381 N 
ATOM     19  H   LIG d   1      -8.853  93.879 117.099  0.00  0.00    -0.090 HD
ATOM     20  H   LIG d   1      -7.382  94.515 116.824  0.00  0.00    -0.090 HD
ATOM     21  H   LIG d   1      -8.065  94.648 118.308  0.00  0.00    -0.090 HD
ENDBRANCH   5  18
BRANCH   3  22
ATOM     22  C   LIG d   1      -6.408  89.802 115.962  0.00  0.00     0.382 C 
ATOM     23  O   LIG d   1      -5.408  89.145 115.584  0.00  0.00    -0.241 OA
ATOM     24  O   LIG d   1      -7.532  89.528 115.500  0.00  0.00    -0.241 OA
ENDBRANCH   3  22
TORSDOF 7
ENDMDL
MODEL 4
REMARK VINA RESULT:      -5.3      2.311      4.722
REMARK  7 active torsions:
REMARK  status: ('A' for Active; 'I' for Inactive)
REMARK    1  A    between atoms: C_2  and  C_3 
REMARK    2  A    between atoms: C_3  and  O_6 
REMARK    3  A    between atoms: C_3  and  C_4 
REMARK    4  A    between atoms: C_7  and  O_6 
REMARK    5  A    between atoms: C_9  and  C_10 
REMARK    6  A    between atoms: N_15  and  C_14 
REMARK    7  A    between atoms: N_20  and  C_19 
REMARK       I    between atoms: C_22  and  N_20 
ROOT
ATOM      1  C   LIG d   1      -4.653  91.311 118.118  0.00  0.00     0.161 C 
ATOM      2  C   LIG d   1      -5.374  90.490 117.235  0.00  0.00     0.016 C 
ATOM      3  C   LIG d   1      -6.500  90.933 116.504  0.00  0.00     0.038 C 
ATOM      4  C   LIG d   1      -6.893  92.280 116.492  0.00  0.00     0.028 C 
ATOM      5  C   LIG d   1      -6.504  93.035 117.758  0.00  0.00    -0.047 C 
ATOM      6  C   LIG d   1      -4.999  92.812 118.034  0.00  0.00     0.091 C 
ENDROOT
BRANCH   1   7
ATOM      7  O   LIG d   1      -3.239  91.111 117.926  0.00  0.00    -0.368 OA
BRANCH   7   8
ATOM      8  C   LIG d   1      -2.611  90.129 118.787  0.00  0.00     0.119 C 
BRANCH   8   9
ATOM      9  C   LIG d   1      -1.693  90.889 119.764  0.00  0.00     0.028 C 
ATOM     10  C   LIG d   1      -2.301  91.002 121.172  0.00  0.00     0.006 C 
ENDBRANCH   8   9
BRANCH   8  11
ATOM     11  C   LIG d   1      -1.682  89.205 117.994  0.00  0.00     0.028 C 
ATOM     12  C   LIG d   1      -2.364  87.893 117.573  0.00  0.00     0.006 C 
ENDBRANCH   8  11
ENDBRANCH   7   8
ENDBRANCH   1   7
BRANCH   6  13
ATOM     13  N   LIG d   1      -4.554  93.448 119.301  0.00  0.00    -0.311 N 
ATOM     14  C   LIG d   1      -3.428  94.150 119.413  0.00  0.00     0.210 C 
ATOM     15  C   LIG d   1      -3.147  94.703 120.813  0.00  0.00     0.109 C 
ATOM     16  O   LIG d   1      -2.651  94.394 118.477  0.00  0.00    -0.276 OA
ATOM     17  H   LIG d   1      -5.141  93.327 120.103  0.00  0.00     0.149 HD
ENDBRANCH   6  13
BRANCH   5  18
ATOM     18  N   LIG d   1      -6.850  94.455 117.554  0.00  0.00     0.381 N 
ATOM     19  H   LIG d   1      -7.493  94.752 118.261  0.00  0.00    -0.090 HD
ATOM     20  H   LIG d   1      -7.296  94.555 116.660  0.00  0.00    -0.090 HD
ATOM     21  H   LIG d   1      -6.026  95.015 117.588  0.00  0.00    -0.090 HD
ENDBRANCH   5  18
BRANCH   3  22
ATOM     22  C   LIG d   1      -7.271  90.016 115.805  0.00  0.00     0.382 C 
ATOM     23  O   LIG d   1      -7.747  89.017 116.397  0.00  0.00    -0.241 OA
ATOM     24  O   LIG d   1      -7.459  90.152 114.582  0.00  0.00    -0.241 OA
ENDBRANCH   3  22
TORSDOF 7
ENDMDL
MODEL 5
REMARK VINA RESULT:      -5.3     12.267     15.420
REMARK  7 active torsions:
REMARK  status: ('A' for Active; 'I' for Inactive)
REMARK    1  A    between atoms: C_2  and  C_3 
REMARK    2  A    between atoms: C_3  and  O_6 
REMARK    3  A    between atoms: C_3  and  C_4 
REMARK    4  A    between atoms: C_7  and  O_6 
REMARK    5  A    between atoms: C_9  and  C_10 
REMARK    6  A    between atoms: N_15  and  C_14 
REMARK    7  A    between atoms: N_20  and  C_19 
REMARK       I    between atoms: C_22  and  N_20 
ROOT
ATOM      1  C   LIG d   1      -6.274  78.855 117.331  0.00  0.00     0.161 C 
ATOM      2  C   LIG d   1      -5.249  77.994 117.756  0.00  0.00     0.016 C 
ATOM      3  C   LIG d   1      -4.848  77.868 119.106  0.00  0.00     0.038 C 
ATOM      4  C   LIG d   1      -5.551  78.489 120.149  0.00  0.00     0.028 C 
ATOM      5  C   LIG d   1      -6.272  79.762 119.719  0.00  0.00    -0.047 C 
ATOM      6  C   LIG d   1      -7.126  79.457 118.467  0.00  0.00     0.091 C 
ENDROOT
BRANCH   1   7
ATOM      7  O   LIG d   1      -7.117  78.179 116.377  0.00  0.00    -0.368 OA
BRANCH   7   8
ATOM      8  C   LIG d   1      -7.412  76.789 116.660  0.00  0.00     0.119 C 
BRANCH   8   9
ATOM      9  C   LIG d   1      -7.299  76.013 115.334  0.00  0.00     0.028 C 
ATOM     10  C   LIG d   1      -6.054  75.112 115.285  0.00  0.00     0.006 C 
ENDBRANCH   8   9
BRANCH   8  11
ATOM     11  C   LIG d   1      -8.864  76.609 117.113  0.00  0.00     0.028 C 
ATOM     12  C   LIG d   1      -9.184  75.163 117.524  0.00  0.00     0.006 C 
ENDBRANCH   8  11
ENDBRANCH   7   8
ENDBRANCH   1   7
BRANCH   6  13
ATOM     13  N   LIG d   1      -7.799  80.669 117.932  0.00  0.00    -0.311 N 
ATOM     14  C   LIG d   1      -9.116  80.758 117.754  0.00  0.00     0.210 C 
ATOM     15  C   LIG d   1      -9.602  82.089 117.171  0.00  0.00     0.109 C 
ATOM     16  O   LIG d   1      -9.932  79.873 118.055  0.00  0.00    -0.276 OA
ATOM     17  H   LIG d   1      -7.216  81.446 117.691  0.00  0.00     0.149 HD
ENDBRANCH   6  13
BRANCH   5  18
ATOM     18  N   LIG d   1      -7.074  80.229 120.866  0.00  0.00     0.381 N 
ATOM     19  H   LIG d   1      -6.760  79.780 121.704  0.00  0.00    -0.090 HD
ATOM     20  H   LIG d   1      -8.035  79.978 120.715  0.00  0.00    -0.090 HD
ATOM     21  H   LIG d   1      -6.992  81.217 120.960  0.00  0.00    -0.090 HD
ENDBRANCH   5  18
BRANCH   3  22
ATOM     22  C   LIG d   1      -3.707  77.146 119.419  0.00  0.00     0.382 C 
ATOM     23  O   LIG d   1      -3.111  77.355 120.503  0.00  0.00    -0.241 OA
ATOM     24  O   LIG d   1      -3.240  76.320 118.612  0.00  0.00    -0.241 OA
ENDBRANCH   3  22
TORSDOF 7
ENDMDL
MODEL 6
REMARK VINA RESULT:      -5.1      2.035      4.419
REMARK  7 active torsions:
REMARK  status: ('A' for Active; 'I' for Inactive)
REMARK    1  A    between atoms: C_2  and  C_3 
REMARK    2  A    between atoms: C_3  and  O_6 
REMARK    3  A    between atoms: C_3  and  C_4 
REMARK    4  A    between atoms: C_7  and  O_6 
REMARK    5  A    between atoms: C_9  and  C_10 
REMARK    6  A    between atoms: N_15  and  C_14 
REMARK    7  A    between atoms: N_20  and  C_19 
REMARK       I    between atoms: C_22  and  N_20 
ROOT
ATOM      1  C   LIG d   1      -4.710  92.119 118.187  0.00  0.00     0.161 C 
ATOM      2  C   LIG d   1      -4.914  91.088 117.255  0.00  0.00     0.016 C 
ATOM      3  C   LIG d   1      -6.095  90.953 116.490  0.00  0.00     0.038 C 
ATOM      4  C   LIG d   1      -7.099  91.933 116.496  0.00  0.00     0.028 C 
ATOM      5  C   LIG d   1      -7.160  92.729 117.796  0.00  0.00    -0.047 C 
ATOM      6  C   LIG d   1      -5.747  93.260 118.126  0.00  0.00     0.091 C 
ENDROOT
BRANCH   1   7
ATOM      7  O   LIG d   1      -3.376  92.647 118.048  0.00  0.00    -0.368 OA
BRANCH   7   8
ATOM      8  C   LIG d   1      -2.459  92.354 119.131  0.00  0.00     0.119 C 
BRANCH   8   9
ATOM      9  C   LIG d   1      -2.060  93.697 119.774  0.00  0.00     0.028 C 
ATOM     10  C   LIG d   1      -2.227  94.883 118.809  0.00  0.00     0.006 C 
ENDBRANCH   8   9
BRANCH   8  11
ATOM     11  C   LIG d   1      -1.152  91.751 118.607  0.00  0.00     0.028 C 
ATOM     12  C   LIG d   1      -1.330  90.326 118.062  0.00  0.00     0.006 C 
ENDBRANCH   8  11
ENDBRANCH   7   8
ENDBRANCH   1   7
BRANCH   6  13
ATOM     13  N   LIG d   1      -5.701  93.979 119.426  0.00  0.00    -0.311 N 
ATOM     14  C   LIG d   1      -5.942  95.283 119.552  0.00  0.00     0.210 C 
ATOM     15  C   LIG d   1      -5.823  95.828 120.979  0.00  0.00     0.109 C 
ATOM     16  O   LIG d   1      -6.276  96.033 118.623  0.00  0.00    -0.276 OA
ATOM     17  H   LIG d   1      -5.469  93.440 120.237  0.00  0.00     0.149 HD
ENDBRANCH   6  13
BRANCH   5  18
ATOM     18  N   LIG d   1      -8.154  93.804 117.614  0.00  0.00     0.381 N 
ATOM     19  H   LIG d   1      -7.907  94.593 118.178  0.00  0.00    -0.090 HD
ATOM     20  H   LIG d   1      -9.053  93.470 117.915  0.00  0.00    -0.090 HD
ATOM     21  H   LIG d   1      -8.195  94.072 116.655  0.00  0.00    -0.090 HD
ENDBRANCH   5  18
BRANCH   3  22
ATOM     22  C   LIG d   1      -6.300  89.806 115.738  0.00  0.00     0.382 C 
ATOM     23  O   LIG d   1      -7.461  89.486 115.386  0.00  0.00    -0.241 OA
ATOM     24  O   LIG d   1      -5.343  89.065 115.443  0.00  0.00    -0.241 OA
ENDBRANCH   3  22
TORSDOF 7
ENDMDL
MODEL 7
REMARK VINA RESULT:      -5.0      2.062      4.086
REMARK  7 active torsions:
REMARK  status: ('A' for Active; 'I' for Inactive)
REMARK    1  A    between atoms: C_2  and  C_3 
REMARK    2  A    between atoms: C_3  and  O_6 
REMARK    3  A    between atoms: C_3  and  C_4 
REMARK    4  A    between atoms: C_7  and  O_6 
REMARK    5  A    between atoms: C_9  and  C_10 
REMARK    6  A    between atoms: N_15  and  C_14 
REMARK    7  A    between atoms: N_20  and  C_19 
REMARK       I    between atoms: C_22  and  N_20 
ROOT
ATOM      1  C   LIG d   1      -5.448  92.066 119.505  0.00  0.00     0.161 C 
ATOM      2  C   LIG d   1      -4.617  91.178 118.802  0.00  0.00     0.016 C 
ATOM      3  C   LIG d   1      -4.807  90.845 117.441  0.00  0.00     0.038 C 
ATOM      4  C   LIG d   1      -5.759  91.499 116.644  0.00  0.00     0.028 C 
ATOM      5  C   LIG d   1      -6.948  92.033 117.436  0.00  0.00    -0.047 C 
ATOM      6  C   LIG d   1      -6.424  92.873 118.623  0.00  0.00     0.091 C 
ENDROOT
BRANCH   1   7
ATOM      7  O   LIG d   1      -4.646  92.954 120.308  0.00  0.00    -0.368 OA
BRANCH   7   8
ATOM      8  C   LIG d   1      -4.172  94.155 119.649  0.00  0.00     0.119 C 
BRANCH   8   9
ATOM      9  C   LIG d   1      -2.633  94.079 119.601  0.00  0.00     0.028 C 
ATOM     10  C   LIG d   1      -2.094  94.006 118.163  0.00  0.00     0.006 C 
ENDBRANCH   8   9
BRANCH   8  11
ATOM     11  C   LIG d   1      -4.490  95.405 120.474  0.00  0.00     0.028 C 
ATOM     12  C   LIG d   1      -4.911  96.601 119.604  0.00  0.00     0.006 C 
ENDBRANCH   8  11
ENDBRANCH   7   8
ENDBRANCH   1   7
BRANCH   6  13
ATOM     13  N   LIG d   1      -7.520  93.363 119.498  0.00  0.00    -0.311 N 
ATOM     14  C   LIG d   1      -8.145  94.525 119.310  0.00  0.00     0.210 C 
ATOM     15  C   LIG d   1      -9.232  94.848 120.340  0.00  0.00     0.109 C 
ATOM     16  O   LIG d   1      -7.924  95.302 118.370  0.00  0.00    -0.276 OA
ATOM     17  H   LIG d   1      -7.785  92.780 120.268  0.00  0.00     0.149 HD
ENDBRANCH   6  13
BRANCH   5  18
ATOM     18  N   LIG d   1      -7.791  92.808 116.506  0.00  0.00     0.381 N 
ATOM     19  H   LIG d   1      -8.754  92.712 116.762  0.00  0.00    -0.090 HD
ATOM     20  H   LIG d   1      -7.673  92.442 115.578  0.00  0.00    -0.090 HD
ATOM     21  H   LIG d   1      -7.528  93.769 116.528  0.00  0.00    -0.090 HD
ENDBRANCH   5  18
BRANCH   3  22
ATOM     22  C   LIG d   1      -4.066  89.820 116.874  0.00  0.00     0.382 C 
ATOM     23  O   LIG d   1      -2.873  89.644 117.218  0.00  0.00    -0.241 OA
ATOM     24  O   LIG d   1      -4.563  89.096 115.990  0.00  0.00    -0.241 OA
ENDBRANCH   3  22
TORSDOF 7
ENDMDL
MODEL 8
REMARK VINA RESULT:      -5.0     13.166     16.148
REMARK  7 active torsions:
REMARK  status: ('A' for Active; 'I' for Inactive)
REMARK    1  A    between atoms: C_2  and  C_3 
REMARK    2  A    between atoms: C_3  and  O_6 
REMARK    3  A    between atoms: C_3  and  C_4 
REMARK    4  A    between atoms: C_7  and  O_6 
REMARK    5  A    between atoms: C_9  and  C_10 
REMARK    6  A    between atoms: N_15  and  C_14 
REMARK    7  A    between atoms: N_20  and  C_19 
REMARK       I    between atoms: C_22  and  N_20 
ROOT
ATOM      1  C   LIG d   1      -4.597  77.943 116.822  0.00  0.00     0.161 C 
ATOM      2  C   LIG d   1      -3.815  76.901 116.296  0.00  0.00     0.016 C 
ATOM      3  C   LIG d   1      -3.005  76.058 117.092  0.00  0.00     0.038 C 
ATOM      4  C   LIG d   1      -3.040  76.103 118.493  0.00  0.00     0.028 C 
ATOM      5  C   LIG d   1      -3.429  77.470 119.046  0.00  0.00    -0.047 C 
ATOM      6  C   LIG d   1      -4.734  77.936 118.359  0.00  0.00     0.091 C 
ENDROOT
BRANCH   1   7
ATOM      7  O   LIG d   1      -5.898  77.937 116.203  0.00  0.00    -0.368 OA
BRANCH   7   8
ATOM      8  C   LIG d   1      -6.790  76.869 116.605  0.00  0.00     0.119 C 
BRANCH   8   9
ATOM      9  C   LIG d   1      -7.185  76.092 115.333  0.00  0.00     0.028 C 
ATOM     10  C   LIG d   1      -6.539  74.698 115.273  0.00  0.00     0.006 C 
ENDBRANCH   8   9
BRANCH   8  11
ATOM     11  C   LIG d   1      -8.104  77.421 117.167  0.00  0.00     0.028 C 
ATOM     12  C   LIG d   1      -9.105  76.315 117.538  0.00  0.00     0.006 C 
ENDBRANCH   8  11
ENDBRANCH   7   8
ENDBRANCH   1   7
BRANCH   6  13
ATOM     13  N   LIG d   1      -5.139  79.303 118.781  0.00  0.00    -0.311 N 
ATOM     14  C   LIG d   1      -6.042  79.539 119.731  0.00  0.00     0.210 C 
ATOM     15  C   LIG d   1      -6.329  81.020 119.996  0.00  0.00     0.109 C 
ATOM     16  O   LIG d   1      -6.610  78.663 120.401  0.00  0.00    -0.276 OA
ATOM     17  H   LIG d   1      -4.705  80.073 118.310  0.00  0.00     0.149 HD
ENDBRANCH   6  13
BRANCH   5  18
ATOM     18  N   LIG d   1      -3.561  77.339 120.509  0.00  0.00     0.381 N 
ATOM     19  H   LIG d   1      -2.936  77.974 120.964  0.00  0.00    -0.090 HD
ATOM     20  H   LIG d   1      -3.310  76.403 120.775  0.00  0.00    -0.090 HD
ATOM     21  H   LIG d   1      -4.499  77.531 120.785  0.00  0.00    -0.090 HD
ENDBRANCH   5  18
BRANCH   3  22
ATOM     22  C   LIG d   1      -2.118  75.183 116.483  0.00  0.00     0.382 C 
ATOM     23  O   LIG d   1      -1.037  74.892 117.049  0.00  0.00    -0.241 OA
ATOM     24  O   LIG d   1      -2.366  74.715 115.355  0.00  0.00    -0.241 OA
ENDBRANCH   3  22
TORSDOF 7
ENDMDL
MODEL 9
REMARK VINA RESULT:      -4.9      2.192      2.940
REMARK  7 active torsions:
REMARK  status: ('A' for Active; 'I' for Inactive)
REMARK    1  A    between atoms: C_2  and  C_3 
REMARK    2  A    between atoms: C_3  and  O_6 
REMARK    3  A    between atoms: C_3  and  C_4 
REMARK    4  A    between atoms: C_7  and  O_6 
REMARK    5  A    between atoms: C_9  and  C_10 
REMARK    6  A    between atoms: N_15  and  C_14 
REMARK    7  A    between atoms: N_20  and  C_19 
REMARK       I    between atoms: C_22  and  N_20 
ROOT
ATOM      1  C   LIG d   1      -4.217  92.359 117.573  0.00  0.00     0.161 C 
ATOM      2  C   LIG d   1      -5.382  92.226 116.799  0.00  0.00     0.016 C 
ATOM      3  C   LIG d   1      -5.771  91.015 116.181  0.00  0.00     0.038 C 
ATOM      4  C   LIG d   1      -5.095  89.810 116.421  0.00  0.00     0.028 C 
ATOM      5  C   LIG d   1      -3.627  90.001 116.788  0.00  0.00    -0.047 C 
ATOM      6  C   LIG d   1      -3.527  91.028 117.938  0.00  0.00     0.091 C 
ENDROOT
BRANCH   1   7
ATOM      7  O   LIG d   1      -4.507  93.117 118.765  0.00  0.00    -0.368 OA
BRANCH   7   8
ATOM      8  C   LIG d   1      -5.909  93.276 119.094  0.00  0.00     0.119 C 
BRANCH   8   9
ATOM      9  C   LIG d   1      -6.209  94.787 119.122  0.00  0.00     0.028 C 
ATOM     10  C   LIG d   1      -7.368  95.172 118.186  0.00  0.00     0.006 C 
ENDBRANCH   8   9
BRANCH   8  11
ATOM     11  C   LIG d   1      -6.209  92.777 120.511  0.00  0.00     0.028 C 
ATOM     12  C   LIG d   1      -4.983  92.151 121.194  0.00  0.00     0.006 C 
ENDBRANCH   8  11
ENDBRANCH   7   8
ENDBRANCH   1   7
BRANCH   6  13
ATOM     13  N   LIG d   1      -2.119  91.337 118.302  0.00  0.00    -0.311 N 
ATOM     14  C   LIG d   1      -1.555  90.946 119.443  0.00  0.00     0.210 C 
ATOM     15  C   LIG d   1      -0.100  91.388 119.629  0.00  0.00     0.109 C 
ATOM     16  O   LIG d   1      -2.111  90.249 120.305  0.00  0.00    -0.276 OA
ATOM     17  H   LIG d   1      -1.585  91.872 117.646  0.00  0.00     0.149 HD
ENDBRANCH   6  13
BRANCH   5  18
ATOM     18  N   LIG d   1      -3.081  88.678 117.146  0.00  0.00     0.381 N 
ATOM     19  H   LIG d   1      -3.826  88.063 117.407  0.00  0.00    -0.090 HD
ATOM     20  H   LIG d   1      -2.467  88.782 117.934  0.00  0.00    -0.090 HD
ATOM     21  H   LIG d   1      -2.581  88.295 116.374  0.00  0.00    -0.090 HD
ENDBRANCH   5  18
BRANCH   3  22
ATOM     22  C   LIG d   1      -6.824  91.012 115.279  0.00  0.00     0.382 C 
ATOM     23  O   LIG d   1      -7.441  89.946 115.040  0.00  0.00    -0.241 OA
ATOM     24  O   LIG d   1      -7.136  92.051 114.668  0.00  0.00    -0.241 OA
ENDBRANCH   3  22
TORSDOF 7
ENDMDL
