MODEL 1
REMARK VINA RESULT:      -5.4      0.000      0.000
REMARK  7 active torsions:
REMARK  status: ('A' for Active; 'I' for Inactive)
REMARK    1  A    between atoms: C_2  and  C_3 
REMARK    2  A    between atoms: C_3  and  O_6 
REMARK    3  A    between atoms: C_3  and  C_4 
REMARK    4  A    between atoms: C_7  and  O_6 
REMARK    5  A    between atoms: C_9  and  C_10 
REMARK    6  A    between atoms: N_15  and  C_14 
REMARK    7  A    between atoms: N_20  and  C_19 
REMARK       I    between atoms: C_22  and  N_20 
ROOT
ATOM      1  C   LIG d   1       0.729  59.574 119.163  0.00  0.00     0.161 C 
ATOM      2  C   LIG d   1       0.142  59.578 117.887  0.00  0.00     0.016 C 
ATOM      3  C   LIG d   1       0.584  58.756 116.825  0.00  0.00     0.038 C 
ATOM      4  C   LIG d   1       1.553  57.758 117.013  0.00  0.00     0.028 C 
ATOM      5  C   LIG d   1       2.523  58.062 118.150  0.00  0.00    -0.047 C 
ATOM      6  C   LIG d   1       1.713  58.414 119.419  0.00  0.00     0.091 C 
ENDROOT
BRANCH   1   7
ATOM      7  O   LIG d   1      -0.299  59.591 120.173  0.00  0.00    -0.368 OA
BRANCH   7   8
ATOM      8  C   LIG d   1      -0.468  60.839 120.889  0.00  0.00     0.119 C 
BRANCH   8   9
ATOM      9  C   LIG d   1       0.021  60.614 122.333  0.00  0.00     0.028 C 
ATOM     10  C   LIG d   1       0.065  61.918 123.148  0.00  0.00     0.006 C 
ENDBRANCH   8   9
BRANCH   8  11
ATOM     11  C   LIG d   1      -1.948  61.213 121.017  0.00  0.00     0.028 C 
ATOM     12  C   LIG d   1      -2.738  60.965 119.722  0.00  0.00     0.006 C 
ENDBRANCH   8  11
ENDBRANCH   7   8
ENDBRANCH   1   7
BRANCH   6  13
ATOM     13  N   LIG d   1       2.585  58.807 120.557  0.00  0.00    -0.311 N 
ATOM     14  C   LIG d   1       2.982  57.958 121.504  0.00  0.00     0.210 C 
ATOM     15  C   LIG d   1       3.861  58.574 122.596  0.00  0.00     0.109 C 
ATOM     16  O   LIG d   1       2.715  56.747 121.525  0.00  0.00    -0.276 OA
ATOM     17  H   LIG d   1       2.875  59.764 120.600  0.00  0.00     0.149 HD
ENDBRANCH   6  13
BRANCH   5  18
ATOM     18  N   LIG d   1       3.389  56.881 118.325  0.00  0.00     0.381 N 
ATOM     19  H   LIG d   1       3.471  56.390 117.457  0.00  0.00    -0.090 HD
ATOM     20  H   LIG d   1       2.966  56.265 118.997  0.00  0.00    -0.090 HD
ATOM     21  H   LIG d   1       4.290  57.163 118.642  0.00  0.00    -0.090 HD
ENDBRANCH   5  18
BRANCH   3  22
ATOM     22  C   LIG d   1       0.084  58.955 115.547  0.00  0.00     0.382 C 
ATOM     23  O   LIG d   1       0.868  59.184 114.595  0.00  0.00    -0.241 OA
ATOM     24  O   LIG d   1      -1.145  58.952 115.343  0.00  0.00    -0.241 OA
ENDBRANCH   3  22
TORSDOF 7
ENDMDL
MODEL 2
REMARK VINA RESULT:      -5.4     31.638     33.508
REMARK  7 active torsions:
REMARK  status: ('A' for Active; 'I' for Inactive)
REMARK    1  A    between atoms: C_2  and  C_3 
REMARK    2  A    between atoms: C_3  and  O_6 
REMARK    3  A    between atoms: C_3  and  C_4 
REMARK    4  A    between atoms: C_7  and  O_6 
REMARK    5  A    between atoms: C_9  and  C_10 
REMARK    6  A    between atoms: N_15  and  C_14 
REMARK    7  A    between atoms: N_20  and  C_19 
REMARK       I    between atoms: C_22  and  N_20 
ROOT
ATOM      1  C   LIG d   1      -4.298  91.626 117.992  0.00  0.00     0.161 C 
ATOM      2  C   LIG d   1      -5.076  90.764 117.202  0.00  0.00     0.016 C 
ATOM      3  C   LIG d   1      -6.317  91.135 116.635  0.00  0.00     0.038 C 
ATOM      4  C   LIG d   1      -6.794  92.453 116.694  0.00  0.00     0.028 C 
ATOM      5  C   LIG d   1      -6.288  93.227 117.906  0.00  0.00    -0.047 C 
ATOM      6  C   LIG d   1      -4.748  93.102 117.975  0.00  0.00     0.091 C 
ENDROOT
BRANCH   1   7
ATOM      7  O   LIG d   1      -2.912  91.521 117.610  0.00  0.00    -0.368 OA
BRANCH   7   8
ATOM      8  C   LIG d   1      -2.007  91.020 118.624  0.00  0.00     0.119 C 
BRANCH   8   9
ATOM      9  C   LIG d   1      -0.644  91.704 118.407  0.00  0.00     0.028 C 
ATOM     10  C   LIG d   1       0.206  90.995 117.340  0.00  0.00     0.006 C 
ENDBRANCH   8   9
BRANCH   8  11
ATOM     11  C   LIG d   1      -1.743  89.522 118.444  0.00  0.00     0.028 C 
ATOM     12  C   LIG d   1      -2.558  88.652 119.414  0.00  0.00     0.006 C 
ENDBRANCH   8  11
ENDBRANCH   7   8
ENDBRANCH   1   7
BRANCH   6  13
ATOM     13  N   LIG d   1      -4.179  93.760 119.179  0.00  0.00    -0.311 N 
ATOM     14  C   LIG d   1      -3.128  94.578 119.140  0.00  0.00     0.210 C 
ATOM     15  C   LIG d   1      -2.691  95.133 120.499  0.00  0.00     0.109 C 
ATOM     16  O   LIG d   1      -2.537  94.921 118.106  0.00  0.00    -0.276 OA
ATOM     17  H   LIG d   1      -4.617  93.562 120.057  0.00  0.00     0.149 HD
ENDBRANCH   6  13
BRANCH   5  18
ATOM     18  N   LIG d   1      -6.749  94.621 117.769  0.00  0.00     0.381 N 
ATOM     19  H   LIG d   1      -6.947  94.820 116.809  0.00  0.00    -0.090 HD
ATOM     20  H   LIG d   1      -6.016  95.238 118.074  0.00  0.00    -0.090 HD
ATOM     21  H   LIG d   1      -7.566  94.766 118.321  0.00  0.00    -0.090 HD
ENDBRANCH   5  18
BRANCH   3  22
ATOM     22  C   LIG d   1      -7.113  90.173 116.033  0.00  0.00     0.382 C 
ATOM     23  O   LIG d   1      -8.011  89.599 116.695  0.00  0.00    -0.241 OA
ATOM     24  O   LIG d   1      -6.915  89.839 114.850  0.00  0.00    -0.241 OA
ENDBRANCH   3  22
TORSDOF 7
ENDMDL
MODEL 3
REMARK VINA RESULT:      -5.2     31.725     33.589
REMARK  7 active torsions:
REMARK  status: ('A' for Active; 'I' for Inactive)
REMARK    1  A    between atoms: C_2  and  C_3 
REMARK    2  A    between atoms: C_3  and  O_6 
REMARK    3  A    between atoms: C_3  and  C_4 
REMARK    4  A    between atoms: C_7  and  O_6 
REMARK    5  A    between atoms: C_9  and  C_10 
REMARK    6  A    between atoms: N_15  and  C_14 
REMARK    7  A    between atoms: N_20  and  C_19 
REMARK       I    between atoms: C_22  and  N_20 
ROOT
ATOM      1  C   LIG d   1      -4.049  91.797 118.140  0.00  0.00     0.161 C 
ATOM      2  C   LIG d   1      -4.538  90.893 117.182  0.00  0.00     0.016 C 
ATOM      3  C   LIG d   1      -5.701  91.127 116.413  0.00  0.00     0.038 C 
ATOM      4  C   LIG d   1      -6.374  92.357 116.442  0.00  0.00     0.028 C 
ATOM      5  C   LIG d   1      -6.212  93.105 117.762  0.00  0.00    -0.047 C 
ATOM      6  C   LIG d   1      -4.707  93.192 118.107  0.00  0.00     0.091 C 
ENDROOT
BRANCH   1   7
ATOM      7  O   LIG d   1      -2.618  91.914 118.016  0.00  0.00    -0.368 OA
BRANCH   7   8
ATOM      8  C   LIG d   1      -1.875  90.671 118.003  0.00  0.00     0.119 C 
BRANCH   8   9
ATOM      9  C   LIG d   1      -1.911  90.095 119.432  0.00  0.00     0.028 C 
ATOM     10  C   LIG d   1      -2.475  88.665 119.475  0.00  0.00     0.006 C 
ENDBRANCH   8   9
BRANCH   8  11
ATOM     11  C   LIG d   1      -0.393  90.910 117.700  0.00  0.00     0.028 C 
ATOM     12  C   LIG d   1      -0.034  92.403 117.625  0.00  0.00     0.006 C 
ENDBRANCH   8  11
ENDBRANCH   7   8
ENDBRANCH   1   7
BRANCH   6  13
ATOM     13  N   LIG d   1      -4.465  93.835 119.425  0.00  0.00    -0.311 N 
ATOM     14  C   LIG d   1      -3.669  94.891 119.590  0.00  0.00     0.210 C 
ATOM     15  C   LIG d   1      -3.542  95.385 121.034  0.00  0.00     0.109 C 
ATOM     16  O   LIG d   1      -3.082  95.485 118.673  0.00  0.00    -0.276 OA
ATOM     17  H   LIG d   1      -4.926  93.437 120.219  0.00  0.00     0.149 HD
ENDBRANCH   6  13
BRANCH   5  18
ATOM     18  N   LIG d   1      -6.846  94.427 117.605  0.00  0.00     0.381 N 
ATOM     19  H   LIG d   1      -7.841  94.323 117.570  0.00  0.00    -0.090 HD
ATOM     20  H   LIG d   1      -6.541  94.835 116.739  0.00  0.00    -0.090 HD
ATOM     21  H   LIG d   1      -6.594  95.019 118.366  0.00  0.00    -0.090 HD
ENDBRANCH   5  18
BRANCH   3  22
ATOM     22  C   LIG d   1      -6.225  90.108 115.632  0.00  0.00     0.382 C 
ATOM     23  O   LIG d   1      -7.466  89.931 115.582  0.00  0.00    -0.241 OA
ATOM     24  O   LIG d   1      -5.470  89.336 115.011  0.00  0.00    -0.241 OA
ENDBRANCH   3  22
TORSDOF 7
ENDMDL
MODEL 4
REMARK VINA RESULT:      -5.2     33.283     35.049
REMARK  7 active torsions:
REMARK  status: ('A' for Active; 'I' for Inactive)
REMARK    1  A    between atoms: C_2  and  C_3 
REMARK    2  A    between atoms: C_3  and  O_6 
REMARK    3  A    between atoms: C_3  and  C_4 
REMARK    4  A    between atoms: C_7  and  O_6 
REMARK    5  A    between atoms: C_9  and  C_10 
REMARK    6  A    between atoms: N_15  and  C_14 
REMARK    7  A    between atoms: N_20  and  C_19 
REMARK       I    between atoms: C_22  and  N_20 
ROOT
ATOM      1  C   LIG d   1      -6.372  93.483 117.997  0.00  0.00     0.161 C 
ATOM      2  C   LIG d   1      -6.795  92.285 117.397  0.00  0.00     0.016 C 
ATOM      3  C   LIG d   1      -5.908  91.254 117.010  0.00  0.00     0.038 C 
ATOM      4  C   LIG d   1      -4.545  91.286 117.338  0.00  0.00     0.028 C 
ATOM      5  C   LIG d   1      -3.993  92.699 117.494  0.00  0.00    -0.047 C 
ATOM      6  C   LIG d   1      -4.901  93.489 118.464  0.00  0.00     0.091 C 
ENDROOT
BRANCH   1   7
ATOM      7  O   LIG d   1      -7.247  93.814 119.094  0.00  0.00    -0.368 OA
BRANCH   7   8
ATOM      8  C   LIG d   1      -8.384  94.652 118.771  0.00  0.00     0.119 C 
BRANCH   8   9
ATOM      9  C   LIG d   1      -7.923  96.119 118.878  0.00  0.00     0.028 C 
ATOM     10  C   LIG d   1      -8.136  96.898 117.569  0.00  0.00     0.006 C 
ENDBRANCH   8   9
BRANCH   8  11
ATOM     11  C   LIG d   1      -9.500  94.501 119.809  0.00  0.00     0.028 C 
ATOM     12  C   LIG d   1      -9.004  93.901 121.134  0.00  0.00     0.006 C 
ENDBRANCH   8  11
ENDBRANCH   7   8
ENDBRANCH   1   7
BRANCH   6  13
ATOM     13  N   LIG d   1      -4.481  94.907 118.607  0.00  0.00    -0.311 N 
ATOM     14  C   LIG d   1      -3.667  95.337 119.570  0.00  0.00     0.210 C 
ATOM     15  C   LIG d   1      -3.377  96.841 119.547  0.00  0.00     0.109 C 
ATOM     16  O   LIG d   1      -3.133  94.610 120.421  0.00  0.00    -0.276 OA
ATOM     17  H   LIG d   1      -4.843  95.560 117.940  0.00  0.00     0.149 HD
ENDBRANCH   6  13
BRANCH   5  18
ATOM     18  N   LIG d   1      -2.601  92.585 117.970  0.00  0.00     0.381 N 
ATOM     19  H   LIG d   1      -2.330  93.430 118.430  0.00  0.00    -0.090 HD
ATOM     20  H   LIG d   1      -1.997  92.448 117.178  0.00  0.00    -0.090 HD
ATOM     21  H   LIG d   1      -2.518  91.815 118.597  0.00  0.00    -0.090 HD
ENDBRANCH   5  18
BRANCH   3  22
ATOM     22  C   LIG d   1      -6.378  90.192 116.252  0.00  0.00     0.382 C 
ATOM     23  O   LIG d   1      -5.696  89.756 115.294  0.00  0.00    -0.241 OA
ATOM     24  O   LIG d   1      -7.495  89.694 116.486  0.00  0.00    -0.241 OA
ENDBRANCH   3  22
TORSDOF 7
ENDMDL
MODEL 5
REMARK VINA RESULT:      -5.1     32.304     34.013
REMARK  7 active torsions:
REMARK  status: ('A' for Active; 'I' for Inactive)
REMARK    1  A    between atoms: C_2  and  C_3 
REMARK    2  A    between atoms: C_3  and  O_6 
REMARK    3  A    between atoms: C_3  and  C_4 
REMARK    4  A    between atoms: C_7  and  O_6 
REMARK    5  A    between atoms: C_9  and  C_10 
REMARK    6  A    between atoms: N_15  and  C_14 
REMARK    7  A    between atoms: N_20  and  C_19 
REMARK       I    between atoms: C_22  and  N_20 
ROOT
ATOM      1  C   LIG d   1      -5.205  93.227 117.618  0.00  0.00     0.161 C 
ATOM      2  C   LIG d   1      -6.236  92.719 116.810  0.00  0.00     0.016 C 
ATOM      3  C   LIG d   1      -6.272  91.385 116.342  0.00  0.00     0.038 C 
ATOM      4  C   LIG d   1      -5.352  90.421 116.779  0.00  0.00     0.028 C 
ATOM      5  C   LIG d   1      -4.007  91.010 117.192  0.00  0.00    -0.047 C 
ATOM      6  C   LIG d   1      -4.251  92.160 118.196  0.00  0.00     0.091 C 
ENDROOT
BRANCH   1   7
ATOM      7  O   LIG d   1      -5.765  94.025 118.679  0.00  0.00    -0.368 OA
BRANCH   7   8
ATOM      8  C   LIG d   1      -7.211  94.057 118.758  0.00  0.00     0.119 C 
BRANCH   8   9
ATOM      9  C   LIG d   1      -7.657  95.508 118.490  0.00  0.00     0.028 C 
ATOM     10  C   LIG d   1      -8.508  95.634 117.216  0.00  0.00     0.006 C 
ENDBRANCH   8   9
BRANCH   8  11
ATOM     11  C   LIG d   1      -7.700  93.738 120.174  0.00  0.00     0.028 C 
ATOM     12  C   LIG d   1      -6.709  92.868 120.964  0.00  0.00     0.006 C 
ENDBRANCH   8  11
ENDBRANCH   7   8
ENDBRANCH   1   7
BRANCH   6  13
ATOM     13  N   LIG d   1      -2.992  92.847 118.587  0.00  0.00    -0.311 N 
ATOM     14  C   LIG d   1      -2.300  92.541 119.682  0.00  0.00     0.210 C 
ATOM     15  C   LIG d   1      -1.042  93.385 119.910  0.00  0.00     0.109 C 
ATOM     16  O   LIG d   1      -2.590  91.628 120.470  0.00  0.00    -0.276 OA
ATOM     17  H   LIG d   1      -2.667  93.580 117.987  0.00  0.00     0.149 HD
ENDBRANCH   6  13
BRANCH   5  18
ATOM     18  N   LIG d   1      -3.194  89.915 117.754  0.00  0.00     0.381 N 
ATOM     19  H   LIG d   1      -2.973  90.113 118.710  0.00  0.00    -0.090 HD
ATOM     20  H   LIG d   1      -2.335  89.851 117.238  0.00  0.00    -0.090 HD
ATOM     21  H   LIG d   1      -3.692  89.054 117.692  0.00  0.00    -0.090 HD
ENDBRANCH   5  18
BRANCH   3  22
ATOM     22  C   LIG d   1      -7.215  91.014 115.396  0.00  0.00     0.382 C 
ATOM     23  O   LIG d   1      -7.230  89.841 114.952  0.00  0.00    -0.241 OA
ATOM     24  O   LIG d   1      -8.023  91.850 114.948  0.00  0.00    -0.241 OA
ENDBRANCH   3  22
TORSDOF 7
ENDMDL
MODEL 6
REMARK VINA RESULT:      -4.9     19.785     21.863
REMARK  7 active torsions:
REMARK  status: ('A' for Active; 'I' for Inactive)
REMARK    1  A    between atoms: C_2  and  C_3 
REMARK    2  A    between atoms: C_3  and  O_6 
REMARK    3  A    between atoms: C_3  and  C_4 
REMARK    4  A    between atoms: C_7  and  O_6 
REMARK    5  A    between atoms: C_9  and  C_10 
REMARK    6  A    between atoms: N_15  and  C_14 
REMARK    7  A    between atoms: N_20  and  C_19 
REMARK       I    between atoms: C_22  and  N_20 
ROOT
ATOM      1  C   LIG d   1      -5.854  78.969 117.123  0.00  0.00     0.161 C 
ATOM      2  C   LIG d   1      -7.245  78.860 117.287  0.00  0.00     0.016 C 
ATOM      3  C   LIG d   1      -8.073  79.946 117.654  0.00  0.00     0.038 C 
ATOM      4  C   LIG d   1      -7.582  81.258 117.736  0.00  0.00     0.028 C 
ATOM      5  C   LIG d   1      -6.097  81.329 118.073  0.00  0.00    -0.047 C 
ATOM      6  C   LIG d   1      -5.317  80.416 117.100  0.00  0.00     0.091 C 
ENDROOT
BRANCH   1   7
ATOM      7  O   LIG d   1      -5.444  78.264 115.935  0.00  0.00    -0.368 OA
BRANCH   7   8
ATOM      8  C   LIG d   1      -5.023  76.890 116.122  0.00  0.00     0.119 C 
BRANCH   8   9
ATOM      9  C   LIG d   1      -3.502  76.902 116.369  0.00  0.00     0.028 C 
ATOM     10  C   LIG d   1      -2.698  77.065 115.069  0.00  0.00     0.006 C 
ENDBRANCH   8   9
BRANCH   8  11
ATOM     11  C   LIG d   1      -5.220  76.068 114.846  0.00  0.00     0.028 C 
ATOM     12  C   LIG d   1      -5.439  74.573 115.128  0.00  0.00     0.006 C 
ENDBRANCH   8  11
ENDBRANCH   7   8
ENDBRANCH   1   7
BRANCH   6  13
ATOM     13  N   LIG d   1      -3.865  80.362 117.413  0.00  0.00    -0.311 N 
ATOM     14  C   LIG d   1      -2.911  80.444 116.487  0.00  0.00     0.210 C 
ATOM     15  C   LIG d   1      -1.480  80.347 117.023  0.00  0.00     0.109 C 
ATOM     16  O   LIG d   1      -3.115  80.620 115.276  0.00  0.00    -0.276 OA
ATOM     17  H   LIG d   1      -3.610  80.251 118.375  0.00  0.00     0.149 HD
ENDBRANCH   6  13
BRANCH   5  18
ATOM     18  N   LIG d   1      -5.688  82.744 117.990  0.00  0.00     0.381 N 
ATOM     19  H   LIG d   1      -5.481  83.091 118.906  0.00  0.00    -0.090 HD
ATOM     20  H   LIG d   1      -6.450  83.281 117.615  0.00  0.00    -0.090 HD
ATOM     21  H   LIG d   1      -4.888  82.835 117.404  0.00  0.00    -0.090 HD
ENDBRANCH   5  18
BRANCH   3  22
ATOM     22  C   LIG d   1      -9.400  79.717 117.983  0.00  0.00     0.382 C 
ATOM     23  O   LIG d   1     -10.177  80.686 118.163  0.00  0.00    -0.241 OA
ATOM     24  O   LIG d   1      -9.820  78.556 118.144  0.00  0.00    -0.241 OA
ENDBRANCH   3  22
TORSDOF 7
ENDMDL
MODEL 7
REMARK VINA RESULT:      -4.8     32.153     34.046
REMARK  7 active torsions:
REMARK  status: ('A' for Active; 'I' for Inactive)
REMARK    1  A    between atoms: C_2  and  C_3 
REMARK    2  A    between atoms: C_3  and  O_6 
REMARK    3  A    between atoms: C_3  and  C_4 
REMARK    4  A    between atoms: C_7  and  O_6 
REMARK    5  A    between atoms: C_9  and  C_10 
REMARK    6  A    between atoms: N_15  and  C_14 
REMARK    7  A    between atoms: N_20  and  C_19 
REMARK       I    between atoms: C_22  and  N_20 
ROOT
ATOM      1  C   LIG d   1      -5.267  92.034 118.593  0.00  0.00     0.161 C 
ATOM      2  C   LIG d   1      -5.423  91.214 117.463  0.00  0.00     0.016 C 
ATOM      3  C   LIG d   1      -6.187  91.583 116.333  0.00  0.00     0.038 C 
ATOM      4  C   LIG d   1      -6.727  92.870 116.191  0.00  0.00     0.028 C 
ATOM      5  C   LIG d   1      -7.020  93.554 117.522  0.00  0.00    -0.047 C 
ATOM      6  C   LIG d   1      -5.757  93.486 118.410  0.00  0.00     0.091 C 
ENDROOT
BRANCH   1   7
ATOM      7  O   LIG d   1      -3.891  92.020 119.021  0.00  0.00    -0.368 OA
BRANCH   7   8
ATOM      8  C   LIG d   1      -3.578  91.145 120.133  0.00  0.00     0.119 C 
BRANCH   8   9
ATOM      9  C   LIG d   1      -3.233  92.037 121.341  0.00  0.00     0.028 C 
ATOM     10  C   LIG d   1      -4.327  92.009 122.422  0.00  0.00     0.006 C 
ENDBRANCH   8   9
BRANCH   8  11
ATOM     11  C   LIG d   1      -2.313  90.327 119.859  0.00  0.00     0.028 C 
ATOM     12  C   LIG d   1      -2.515  89.267 118.764  0.00  0.00     0.006 C 
ENDBRANCH   8  11
ENDBRANCH   7   8
ENDBRANCH   1   7
BRANCH   6  13
ATOM     13  N   LIG d   1      -5.983  94.058 119.762  0.00  0.00    -0.311 N 
ATOM     14  C   LIG d   1      -5.259  95.055 120.268  0.00  0.00     0.210 C 
ATOM     15  C   LIG d   1      -5.645  95.480 121.688  0.00  0.00     0.109 C 
ATOM     16  O   LIG d   1      -4.353  95.648 119.663  0.00  0.00    -0.276 OA
ATOM     17  H   LIG d   1      -6.719  93.657 120.310  0.00  0.00     0.149 HD
ENDBRANCH   6  13
BRANCH   5  18
ATOM     18  N   LIG d   1      -7.448  94.935 117.228  0.00  0.00     0.381 N 
ATOM     19  H   LIG d   1      -6.645  95.521 117.114  0.00  0.00    -0.090 HD
ATOM     20  H   LIG d   1      -7.983  95.281 118.005  0.00  0.00    -0.090 HD
ATOM     21  H   LIG d   1      -8.001  94.951 116.400  0.00  0.00    -0.090 HD
ENDBRANCH   5  18
BRANCH   3  22
ATOM     22  C   LIG d   1      -6.451  90.645 115.346  0.00  0.00     0.382 C 
ATOM     23  O   LIG d   1      -7.435  90.798 114.583  0.00  0.00    -0.241 OA
ATOM     24  O   LIG d   1      -5.743  89.626 115.237  0.00  0.00    -0.241 OA
ENDBRANCH   3  22
TORSDOF 7
ENDMDL
MODEL 8
REMARK VINA RESULT:      -4.7     21.432     23.619
REMARK  7 active torsions:
REMARK  status: ('A' for Active; 'I' for Inactive)
REMARK    1  A    between atoms: C_2  and  C_3 
REMARK    2  A    between atoms: C_3  and  O_6 
REMARK    3  A    between atoms: C_3  and  C_4 
REMARK    4  A    between atoms: C_7  and  O_6 
REMARK    5  A    between atoms: C_9  and  C_10 
REMARK    6  A    between atoms: N_15  and  C_14 
REMARK    7  A    between atoms: N_20  and  C_19 
REMARK       I    between atoms: C_22  and  N_20 
ROOT
ATOM      1  C   LIG d   1      -8.871  80.734 118.305  0.00  0.00     0.161 C 
ATOM      2  C   LIG d   1      -8.046  79.815 117.635  0.00  0.00     0.016 C 
ATOM      3  C   LIG d   1      -6.634  79.885 117.647  0.00  0.00     0.038 C 
ATOM      4  C   LIG d   1      -5.944  80.798 118.459  0.00  0.00     0.028 C 
ATOM      5  C   LIG d   1      -6.737  82.065 118.757  0.00  0.00    -0.047 C 
ATOM      6  C   LIG d   1      -8.135  81.670 119.286  0.00  0.00     0.091 C 
ENDROOT
BRANCH   1   7
ATOM      7  O   LIG d   1      -9.934  80.034 118.982  0.00  0.00    -0.368 OA
BRANCH   7   8
ATOM      8  C   LIG d   1      -9.531  78.928 119.826  0.00  0.00     0.119 C 
BRANCH   8   9
ATOM      9  C   LIG d   1     -10.526  77.775 119.585  0.00  0.00     0.028 C 
ATOM     10  C   LIG d   1     -10.411  76.669 120.648  0.00  0.00     0.006 C 
ENDBRANCH   8   9
BRANCH   8  11
ATOM     11  C   LIG d   1      -9.670  79.280 121.310  0.00  0.00     0.028 C 
ATOM     12  C   LIG d   1     -10.837  80.240 121.587  0.00  0.00     0.006 C 
ENDBRANCH   8  11
ENDBRANCH   7   8
ENDBRANCH   1   7
BRANCH   6  13
ATOM     13  N   LIG d   1      -9.006  82.850 119.522  0.00  0.00    -0.311 N 
ATOM     14  C   LIG d   1      -9.130  83.445 120.708  0.00  0.00     0.210 C 
ATOM     15  C   LIG d   1     -10.096  84.633 120.737  0.00  0.00     0.109 C 
ATOM     16  O   LIG d   1      -8.507  83.121 121.730  0.00  0.00    -0.276 OA
ATOM     17  H   LIG d   1      -9.525  83.198 118.740  0.00  0.00     0.149 HD
ENDBRANCH   6  13
BRANCH   5  18
ATOM     18  N   LIG d   1      -5.958  82.863 119.722  0.00  0.00     0.381 N 
ATOM     19  H   LIG d   1      -5.556  83.654 119.260  0.00  0.00    -0.090 HD
ATOM     20  H   LIG d   1      -5.212  82.297 120.085  0.00  0.00    -0.090 HD
ATOM     21  H   LIG d   1      -6.546  83.167 120.466  0.00  0.00    -0.090 HD
ENDBRANCH   5  18
BRANCH   3  22
ATOM     22  C   LIG d   1      -5.898  79.062 116.809  0.00  0.00     0.382 C 
ATOM     23  O   LIG d   1      -6.482  78.213 116.093  0.00  0.00    -0.241 OA
ATOM     24  O   LIG d   1      -4.654  79.126 116.793  0.00  0.00    -0.241 OA
ENDBRANCH   3  22
TORSDOF 7
ENDMDL
MODEL 9
REMARK VINA RESULT:      -4.7     31.810     33.664
REMARK  7 active torsions:
REMARK  status: ('A' for Active; 'I' for Inactive)
REMARK    1  A    between atoms: C_2  and  C_3 
REMARK    2  A    between atoms: C_3  and  O_6 
REMARK    3  A    between atoms: C_3  and  C_4 
REMARK    4  A    between atoms: C_7  and  O_6 
REMARK    5  A    between atoms: C_9  and  C_10 
REMARK    6  A    between atoms: N_15  and  C_14 
REMARK    7  A    between atoms: N_20  and  C_19 
REMARK       I    between atoms: C_22  and  N_20 
ROOT
ATOM      1  C   LIG d   1      -4.337  92.001 117.970  0.00  0.00     0.161 C 
ATOM      2  C   LIG d   1      -4.667  91.037 117.003  0.00  0.00     0.016 C 
ATOM      3  C   LIG d   1      -5.805  91.130 116.168  0.00  0.00     0.038 C 
ATOM      4  C   LIG d   1      -6.611  92.277 116.139  0.00  0.00     0.028 C 
ATOM      5  C   LIG d   1      -6.607  93.054 117.451  0.00  0.00    -0.047 C 
ATOM      6  C   LIG d   1      -5.143  93.314 117.876  0.00  0.00     0.091 C 
ENDROOT
BRANCH   1   7
ATOM      7  O   LIG d   1      -2.923  92.277 117.921  0.00  0.00    -0.368 OA
BRANCH   7   8
ATOM      8  C   LIG d   1      -2.190  92.070 119.153  0.00  0.00     0.119 C 
BRANCH   8   9
ATOM      9  C   LIG d   1      -0.837  92.794 119.014  0.00  0.00     0.028 C 
ATOM     10  C   LIG d   1      -0.465  93.590 120.277  0.00  0.00     0.006 C 
ENDBRANCH   8   9
BRANCH   8  11
ATOM     11  C   LIG d   1      -1.841  90.592 119.352  0.00  0.00     0.028 C 
ATOM     12  C   LIG d   1      -0.986  90.023 118.208  0.00  0.00     0.006 C 
ENDBRANCH   8  11
ENDBRANCH   7   8
ENDBRANCH   1   7
BRANCH   6  13
ATOM     13  N   LIG d   1      -5.047  93.996 119.193  0.00  0.00    -0.311 N 
ATOM     14  C   LIG d   1      -5.554  93.493 120.317  0.00  0.00     0.210 C 
ATOM     15  C   LIG d   1      -5.362  94.367 121.560  0.00  0.00     0.109 C 
ATOM     16  O   LIG d   1      -6.117  92.392 120.409  0.00  0.00    -0.276 OA
ATOM     17  H   LIG d   1      -4.579  94.880 119.215  0.00  0.00     0.149 HD
ENDBRANCH   6  13
BRANCH   5  18
ATOM     18  N   LIG d   1      -7.375  94.295 117.237  0.00  0.00     0.381 N 
ATOM     19  H   LIG d   1      -7.297  94.581 116.282  0.00  0.00    -0.090 HD
ATOM     20  H   LIG d   1      -6.989  95.020 117.816  0.00  0.00    -0.090 HD
ATOM     21  H   LIG d   1      -8.332  94.148 117.471  0.00  0.00    -0.090 HD
ENDBRANCH   5  18
BRANCH   3  22
ATOM     22  C   LIG d   1      -6.167  90.049 115.378  0.00  0.00     0.382 C 
ATOM     23  O   LIG d   1      -5.300  89.217 115.018  0.00  0.00    -0.241 OA
ATOM     24  O   LIG d   1      -7.342  89.920 114.986  0.00  0.00    -0.241 OA
ENDBRANCH   3  22
TORSDOF 7
ENDMDL
