MODEL 1
REMARK VINA RESULT:      -6.0      0.000      0.000
REMARK  7 active torsions:
REMARK  status: ('A' for Active; 'I' for Inactive)
REMARK    1  A    between atoms: C_2  and  C_3 
REMARK    2  A    between atoms: C_3  and  O_6 
REMARK    3  A    between atoms: C_3  and  C_4 
REMARK    4  A    between atoms: C_7  and  O_6 
REMARK    5  A    between atoms: C_9  and  C_10 
REMARK    6  A    between atoms: N_15  and  C_14 
REMARK    7  A    between atoms: N_20  and  C_19 
REMARK       I    between atoms: C_22  and  N_20 
ROOT
ATOM      1  C   LIG d   1       0.515  60.679 119.606  0.00  0.00     0.161 C 
ATOM      2  C   LIG d   1      -0.875  60.609 119.800  0.00  0.00     0.016 C 
ATOM      3  C   LIG d   1      -1.770  60.093 118.835  0.00  0.00     0.038 C 
ATOM      4  C   LIG d   1      -1.318  59.468 117.663  0.00  0.00     0.028 C 
ATOM      5  C   LIG d   1       0.044  59.970 117.197  0.00  0.00    -0.047 C 
ATOM      6  C   LIG d   1       1.036  59.901 118.380  0.00  0.00     0.091 C 
ENDROOT
BRANCH   1   7
ATOM      7  O   LIG d   1       1.197  60.249 120.800  0.00  0.00    -0.368 OA
BRANCH   7   8
ATOM      8  C   LIG d   1       1.925  61.273 121.523  0.00  0.00     0.119 C 
BRANCH   8   9
ATOM      9  C   LIG d   1       3.328  60.715 121.828  0.00  0.00     0.028 C 
ATOM     10  C   LIG d   1       3.384  59.181 121.732  0.00  0.00     0.006 C 
ENDBRANCH   8   9
BRANCH   8  11
ATOM     11  C   LIG d   1       1.291  61.547 122.890  0.00  0.00     0.028 C 
ATOM     12  C   LIG d   1       0.302  62.723 122.863  0.00  0.00     0.006 C 
ENDBRANCH   8  11
ENDBRANCH   7   8
ENDBRANCH   1   7
BRANCH   6  13
ATOM     13  N   LIG d   1       2.372  60.452 118.033  0.00  0.00    -0.311 N 
ATOM     14  C   LIG d   1       3.489  59.726 118.038  0.00  0.00     0.210 C 
ATOM     15  C   LIG d   1       4.761  60.494 117.668  0.00  0.00     0.109 C 
ATOM     16  O   LIG d   1       3.542  58.511 118.283  0.00  0.00    -0.276 OA
ATOM     17  H   LIG d   1       2.416  61.423 117.791  0.00  0.00     0.149 HD
ENDBRANCH   6  13
BRANCH   5  18
ATOM     18  N   LIG d   1       0.455  59.139 116.049  0.00  0.00     0.381 N 
ATOM     19  H   LIG d   1      -0.354  58.775 115.588  0.00  0.00    -0.090 HD
ATOM     20  H   LIG d   1       1.002  58.366 116.386  0.00  0.00    -0.090 HD
ATOM     21  H   LIG d   1       0.994  59.683 115.411  0.00  0.00    -0.090 HD
ENDBRANCH   5  18
BRANCH   3  22
ATOM     22  C   LIG d   1      -3.137  60.235 119.021  0.00  0.00     0.382 C 
ATOM     23  O   LIG d   1      -3.808  59.285 119.491  0.00  0.00    -0.241 OA
ATOM     24  O   LIG d   1      -3.715  61.286 118.682  0.00  0.00    -0.241 OA
ENDBRANCH   3  22
TORSDOF 7
ENDMDL
MODEL 2
REMARK VINA RESULT:      -5.9     16.454     18.345
REMARK  7 active torsions:
REMARK  status: ('A' for Active; 'I' for Inactive)
REMARK    1  A    between atoms: C_2  and  C_3 
REMARK    2  A    between atoms: C_3  and  O_6 
REMARK    3  A    between atoms: C_3  and  C_4 
REMARK    4  A    between atoms: C_7  and  O_6 
REMARK    5  A    between atoms: C_9  and  C_10 
REMARK    6  A    between atoms: N_15  and  C_14 
REMARK    7  A    between atoms: N_20  and  C_19 
REMARK       I    between atoms: C_22  and  N_20 
ROOT
ATOM      1  C   LIG d   1      -8.297  75.584 118.098  0.00  0.00     0.161 C 
ATOM      2  C   LIG d   1      -8.111  74.218 117.827  0.00  0.00     0.016 C 
ATOM      3  C   LIG d   1      -7.269  73.737 116.798  0.00  0.00     0.038 C 
ATOM      4  C   LIG d   1      -6.433  74.591 116.064  0.00  0.00     0.028 C 
ATOM      5  C   LIG d   1      -6.963  76.017 115.962  0.00  0.00    -0.047 C 
ATOM      6  C   LIG d   1      -7.308  76.526 117.380  0.00  0.00     0.091 C 
ENDROOT
BRANCH   1   7
ATOM      7  O   LIG d   1      -8.260  75.809 119.521  0.00  0.00    -0.368 OA
BRANCH   7   8
ATOM      8  C   LIG d   1      -9.536  75.767 120.207  0.00  0.00     0.119 C 
BRANCH   8   9
ATOM      9  C   LIG d   1     -10.423  76.873 119.604  0.00  0.00     0.028 C 
ATOM     10  C   LIG d   1     -10.471  78.132 120.485  0.00  0.00     0.006 C 
ENDBRANCH   8   9
BRANCH   8  11
ATOM     11  C   LIG d   1      -9.385  76.130 121.687  0.00  0.00     0.028 C 
ATOM     12  C   LIG d   1      -8.152  75.482 122.337  0.00  0.00     0.006 C 
ENDBRANCH   8  11
ENDBRANCH   7   8
ENDBRANCH   1   7
BRANCH   6  13
ATOM     13  N   LIG d   1      -7.913  77.884 117.363  0.00  0.00    -0.311 N 
ATOM     14  C   LIG d   1      -7.480  78.888 118.124  0.00  0.00     0.210 C 
ATOM     15  C   LIG d   1      -8.257  80.199 117.966  0.00  0.00     0.109 C 
ATOM     16  O   LIG d   1      -6.507  78.827 118.891  0.00  0.00    -0.276 OA
ATOM     17  H   LIG d   1      -8.688  78.031 116.747  0.00  0.00     0.149 HD
ENDBRANCH   6  13
BRANCH   5  18
ATOM     18  N   LIG d   1      -5.931  76.829 115.291  0.00  0.00     0.381 N 
ATOM     19  H   LIG d   1      -5.869  77.727 115.729  0.00  0.00    -0.090 HD
ATOM     20  H   LIG d   1      -6.196  76.964 114.331  0.00  0.00    -0.090 HD
ATOM     21  H   LIG d   1      -5.050  76.367 115.338  0.00  0.00    -0.090 HD
ENDBRANCH   5  18
BRANCH   3  22
ATOM     22  C   LIG d   1      -7.288  72.390 116.469  0.00  0.00     0.382 C 
ATOM     23  O   LIG d   1      -6.488  71.943 115.613  0.00  0.00    -0.241 OA
ATOM     24  O   LIG d   1      -8.125  71.625 116.985  0.00  0.00    -0.241 OA
ENDBRANCH   3  22
TORSDOF 7
ENDMDL
MODEL 3
REMARK VINA RESULT:      -5.7     32.157     34.073
REMARK  7 active torsions:
REMARK  status: ('A' for Active; 'I' for Inactive)
REMARK    1  A    between atoms: C_2  and  C_3 
REMARK    2  A    between atoms: C_3  and  O_6 
REMARK    3  A    between atoms: C_3  and  C_4 
REMARK    4  A    between atoms: C_7  and  O_6 
REMARK    5  A    between atoms: C_9  and  C_10 
REMARK    6  A    between atoms: N_15  and  C_14 
REMARK    7  A    between atoms: N_20  and  C_19 
REMARK       I    between atoms: C_22  and  N_20 
ROOT
ATOM      1  C   LIG d   1      -6.499  93.400 117.443  0.00  0.00     0.161 C 
ATOM      2  C   LIG d   1      -6.946  92.180 116.908  0.00  0.00     0.016 C 
ATOM      3  C   LIG d   1      -6.086  91.095 116.621  0.00  0.00     0.038 C 
ATOM      4  C   LIG d   1      -4.734  91.103 116.992  0.00  0.00     0.028 C 
ATOM      5  C   LIG d   1      -4.135  92.503 117.073  0.00  0.00    -0.047 C 
ATOM      6  C   LIG d   1      -5.045  93.386 117.958  0.00  0.00     0.091 C 
ENDROOT
BRANCH   1   7
ATOM      7  O   LIG d   1      -7.395  93.834 118.485  0.00  0.00    -0.368 OA
BRANCH   7   8
ATOM      8  C   LIG d   1      -8.473  94.711 118.075  0.00  0.00     0.119 C 
BRANCH   8   9
ATOM      9  C   LIG d   1      -7.890  96.131 117.944  0.00  0.00     0.028 C 
ATOM     10  C   LIG d   1      -7.722  96.824 119.307  0.00  0.00     0.006 C 
ENDBRANCH   8   9
BRANCH   8  11
ATOM     11  C   LIG d   1      -9.552  94.813 119.158  0.00  0.00     0.028 C 
ATOM     12  C   LIG d   1      -9.722  93.509 119.954  0.00  0.00     0.006 C 
ENDBRANCH   8  11
ENDBRANCH   7   8
ENDBRANCH   1   7
BRANCH   6  13
ATOM     13  N   LIG d   1      -4.577  94.795 118.022  0.00  0.00    -0.311 N 
ATOM     14  C   LIG d   1      -4.305  95.426 119.163  0.00  0.00     0.210 C 
ATOM     15  C   LIG d   1      -3.856  96.882 119.006  0.00  0.00     0.109 C 
ATOM     16  O   LIG d   1      -4.363  94.909 120.289  0.00  0.00    -0.276 OA
ATOM     17  H   LIG d   1      -4.472  95.281 117.153  0.00  0.00     0.149 HD
ENDBRANCH   6  13
BRANCH   5  18
ATOM     18  N   LIG d   1      -2.765  92.372 117.603  0.00  0.00     0.381 N 
ATOM     19  H   LIG d   1      -2.779  92.443 118.601  0.00  0.00    -0.090 HD
ATOM     20  H   LIG d   1      -2.203  93.122 117.241  0.00  0.00    -0.090 HD
ATOM     21  H   LIG d   1      -2.376  91.496 117.331  0.00  0.00    -0.090 HD
ENDBRANCH   5  18
BRANCH   3  22
ATOM     22  C   LIG d   1      -6.571  90.002 115.918  0.00  0.00     0.382 C 
ATOM     23  O   LIG d   1      -5.986  89.618 114.876  0.00  0.00    -0.241 OA
ATOM     24  O   LIG d   1      -7.610  89.424 116.287  0.00  0.00    -0.241 OA
ENDBRANCH   3  22
TORSDOF 7
ENDMDL
MODEL 4
REMARK VINA RESULT:      -5.5     17.831     19.748
REMARK  7 active torsions:
REMARK  status: ('A' for Active; 'I' for Inactive)
REMARK    1  A    between atoms: C_2  and  C_3 
REMARK    2  A    between atoms: C_3  and  O_6 
REMARK    3  A    between atoms: C_3  and  C_4 
REMARK    4  A    between atoms: C_7  and  O_6 
REMARK    5  A    between atoms: C_9  and  C_10 
REMARK    6  A    between atoms: N_15  and  C_14 
REMARK    7  A    between atoms: N_20  and  C_19 
REMARK       I    between atoms: C_22  and  N_20 
ROOT
ATOM      1  C   LIG d   1      -7.360  77.532 117.415  0.00  0.00     0.161 C 
ATOM      2  C   LIG d   1      -6.328  77.525 116.462  0.00  0.00     0.016 C 
ATOM      3  C   LIG d   1      -5.950  76.375 115.732  0.00  0.00     0.038 C 
ATOM      4  C   LIG d   1      -6.686  75.182 115.795  0.00  0.00     0.028 C 
ATOM      5  C   LIG d   1      -7.423  74.995 117.116  0.00  0.00    -0.047 C 
ATOM      6  C   LIG d   1      -8.246  76.269 117.417  0.00  0.00     0.091 C 
ENDROOT
BRANCH   1   7
ATOM      7  O   LIG d   1      -8.171  78.712 117.248  0.00  0.00    -0.368 OA
BRANCH   7   8
ATOM      8  C   LIG d   1      -7.845  79.835 118.103  0.00  0.00     0.119 C 
BRANCH   8   9
ATOM      9  C   LIG d   1      -7.373  79.266 119.455  0.00  0.00     0.028 C 
ATOM     10  C   LIG d   1      -6.315  80.155 120.129  0.00  0.00     0.006 C 
ENDBRANCH   8   9
BRANCH   8  11
ATOM     11  C   LIG d   1      -9.089  80.669 118.427  0.00  0.00     0.028 C 
ATOM     12  C   LIG d   1      -9.345  81.780 117.396  0.00  0.00     0.006 C 
ENDBRANCH   8  11
ENDBRANCH   7   8
ENDBRANCH   1   7
BRANCH   6  13
ATOM     13  N   LIG d   1      -8.933  76.203 118.733  0.00  0.00    -0.311 N 
ATOM     14  C   LIG d   1     -10.166  76.661 118.941  0.00  0.00     0.210 C 
ATOM     15  C   LIG d   1     -10.677  76.513 120.377  0.00  0.00     0.109 C 
ATOM     16  O   LIG d   1     -10.897  77.147 118.065  0.00  0.00    -0.276 OA
ATOM     17  H   LIG d   1      -8.424  75.795 119.493  0.00  0.00     0.149 HD
ENDBRANCH   6  13
BRANCH   5  18
ATOM     18  N   LIG d   1      -8.257  73.784 116.994  0.00  0.00     0.381 N 
ATOM     19  H   LIG d   1      -7.681  72.998 116.768  0.00  0.00    -0.090 HD
ATOM     20  H   LIG d   1      -8.916  73.917 116.248  0.00  0.00    -0.090 HD
ATOM     21  H   LIG d   1      -8.741  73.615 117.848  0.00  0.00    -0.090 HD
ENDBRANCH   5  18
BRANCH   3  22
ATOM     22  C   LIG d   1      -4.801  76.400 114.956  0.00  0.00     0.382 C 
ATOM     23  O   LIG d   1      -4.292  75.326 114.556  0.00  0.00    -0.241 OA
ATOM     24  O   LIG d   1      -4.243  77.481 114.688  0.00  0.00    -0.241 OA
ENDBRANCH   3  22
TORSDOF 7
ENDMDL
MODEL 5
REMARK VINA RESULT:      -5.3      1.644      4.893
REMARK  7 active torsions:
REMARK  status: ('A' for Active; 'I' for Inactive)
REMARK    1  A    between atoms: C_2  and  C_3 
REMARK    2  A    between atoms: C_3  and  O_6 
REMARK    3  A    between atoms: C_3  and  C_4 
REMARK    4  A    between atoms: C_7  and  O_6 
REMARK    5  A    between atoms: C_9  and  C_10 
REMARK    6  A    between atoms: N_15  and  C_14 
REMARK    7  A    between atoms: N_20  and  C_19 
REMARK       I    between atoms: C_22  and  N_20 
ROOT
ATOM      1  C   LIG d   1       1.092  60.364 119.766  0.00  0.00     0.161 C 
ATOM      2  C   LIG d   1       2.486  60.394 119.590  0.00  0.00     0.016 C 
ATOM      3  C   LIG d   1       3.117  60.192 118.341  0.00  0.00     0.038 C 
ATOM      4  C   LIG d   1       2.386  60.095 117.148  0.00  0.00     0.028 C 
ATOM      5  C   LIG d   1       0.974  59.554 117.345  0.00  0.00    -0.047 C 
ATOM      6  C   LIG d   1       0.275  60.369 118.457  0.00  0.00     0.091 C 
ENDROOT
BRANCH   1   7
ATOM      7  O   LIG d   1       0.683  61.452 120.617  0.00  0.00    -0.368 OA
BRANCH   7   8
ATOM      8  C   LIG d   1       0.737  61.202 122.043  0.00  0.00     0.119 C 
BRANCH   8   9
ATOM      9  C   LIG d   1      -0.282  60.088 122.356  0.00  0.00     0.028 C 
ATOM     10  C   LIG d   1      -1.393  60.560 123.309  0.00  0.00     0.006 C 
ENDBRANCH   8   9
BRANCH   8  11
ATOM     11  C   LIG d   1       0.264  62.420 122.841  0.00  0.00     0.028 C 
ATOM     12  C   LIG d   1       1.427  63.245 123.414  0.00  0.00     0.006 C 
ENDBRANCH   8  11
ENDBRANCH   7   8
ENDBRANCH   1   7
BRANCH   6  13
ATOM     13  N   LIG d   1      -1.082  59.852 118.772  0.00  0.00    -0.311 N 
ATOM     14  C   LIG d   1      -2.089  60.628 119.167  0.00  0.00     0.210 C 
ATOM     15  C   LIG d   1      -3.399  59.889 119.459  0.00  0.00     0.109 C 
ATOM     16  O   LIG d   1      -2.032  61.862 119.272  0.00  0.00    -0.276 OA
ATOM     17  H   LIG d   1      -1.225  58.865 118.683  0.00  0.00     0.149 HD
ENDBRANCH   6  13
BRANCH   5  18
ATOM     18  N   LIG d   1       0.280  59.635 116.046  0.00  0.00     0.381 N 
ATOM     19  H   LIG d   1       0.600  58.902 115.445  0.00  0.00    -0.090 HD
ATOM     20  H   LIG d   1       0.500  60.516 115.614  0.00  0.00    -0.090 HD
ATOM     21  H   LIG d   1      -0.704  59.560 116.180  0.00  0.00    -0.090 HD
ENDBRANCH   5  18
BRANCH   3  22
ATOM     22  C   LIG d   1       4.495  60.046 118.284  0.00  0.00     0.382 C 
ATOM     23  O   LIG d   1       5.090  59.365 119.153  0.00  0.00    -0.241 OA
ATOM     24  O   LIG d   1       5.155  60.623 117.399  0.00  0.00    -0.241 OA
ENDBRANCH   3  22
TORSDOF 7
ENDMDL
MODEL 6
REMARK VINA RESULT:      -5.2     31.917     33.832
REMARK  7 active torsions:
REMARK  status: ('A' for Active; 'I' for Inactive)
REMARK    1  A    between atoms: C_2  and  C_3 
REMARK    2  A    between atoms: C_3  and  O_6 
REMARK    3  A    between atoms: C_3  and  C_4 
REMARK    4  A    between atoms: C_7  and  O_6 
REMARK    5  A    between atoms: C_9  and  C_10 
REMARK    6  A    between atoms: N_15  and  C_14 
REMARK    7  A    between atoms: N_20  and  C_19 
REMARK       I    between atoms: C_22  and  N_20 
ROOT
ATOM      1  C   LIG d   1      -6.668  93.837 117.947  0.00  0.00     0.161 C 
ATOM      2  C   LIG d   1      -7.241  92.718 117.322  0.00  0.00     0.016 C 
ATOM      3  C   LIG d   1      -6.481  91.675 116.745  0.00  0.00     0.038 C 
ATOM      4  C   LIG d   1      -5.087  91.606 116.888  0.00  0.00     0.028 C 
ATOM      5  C   LIG d   1      -4.430  92.969 117.072  0.00  0.00    -0.047 C 
ATOM      6  C   LIG d   1      -5.152  93.725 118.211  0.00  0.00     0.091 C 
ENDROOT
BRANCH   1   7
ATOM      7  O   LIG d   1      -7.369  94.125 119.173  0.00  0.00    -0.368 OA
BRANCH   7   8
ATOM      8  C   LIG d   1      -7.494  93.027 120.109  0.00  0.00     0.119 C 
BRANCH   8   9
ATOM      9  C   LIG d   1      -8.854  93.175 120.819  0.00  0.00     0.028 C 
ATOM     10  C   LIG d   1      -9.927  93.793 119.907  0.00  0.00     0.006 C 
ENDBRANCH   8   9
BRANCH   8  11
ATOM     11  C   LIG d   1      -6.445  93.120 121.221  0.00  0.00     0.028 C 
ATOM     12  C   LIG d   1      -6.343  94.529 121.828  0.00  0.00     0.006 C 
ENDBRANCH   8  11
ENDBRANCH   7   8
ENDBRANCH   1   7
BRANCH   6  13
ATOM     13  N   LIG d   1      -4.625  95.102 118.401  0.00  0.00    -0.311 N 
ATOM     14  C   LIG d   1      -3.717  95.419 119.322  0.00  0.00     0.210 C 
ATOM     15  C   LIG d   1      -3.326  96.900 119.362  0.00  0.00     0.109 C 
ATOM     16  O   LIG d   1      -3.176  94.609 120.090  0.00  0.00    -0.276 OA
ATOM     17  H   LIG d   1      -4.988  95.816 117.799  0.00  0.00     0.149 HD
ENDBRANCH   6  13
BRANCH   5  18
ATOM     18  N   LIG d   1      -2.998  92.740 117.347  0.00  0.00     0.381 N 
ATOM     19  H   LIG d   1      -2.878  92.446 118.295  0.00  0.00    -0.090 HD
ATOM     20  H   LIG d   1      -2.501  93.604 117.219  0.00  0.00    -0.090 HD
ATOM     21  H   LIG d   1      -2.639  92.047 116.728  0.00  0.00    -0.090 HD
ENDBRANCH   5  18
BRANCH   3  22
ATOM     22  C   LIG d   1      -7.113  90.706 115.981  0.00  0.00     0.382 C 
ATOM     23  O   LIG d   1      -7.707  91.030 114.924  0.00  0.00    -0.241 OA
ATOM     24  O   LIG d   1      -7.135  89.519 116.357  0.00  0.00    -0.241 OA
ENDBRANCH   3  22
TORSDOF 7
ENDMDL
MODEL 7
REMARK VINA RESULT:      -5.2     30.994     32.827
REMARK  7 active torsions:
REMARK  status: ('A' for Active; 'I' for Inactive)
REMARK    1  A    between atoms: C_2  and  C_3 
REMARK    2  A    between atoms: C_3  and  O_6 
REMARK    3  A    between atoms: C_3  and  C_4 
REMARK    4  A    between atoms: C_7  and  O_6 
REMARK    5  A    between atoms: C_9  and  C_10 
REMARK    6  A    between atoms: N_15  and  C_14 
REMARK    7  A    between atoms: N_20  and  C_19 
REMARK       I    between atoms: C_22  and  N_20 
ROOT
ATOM      1  C   LIG d   1      -5.874  92.599 118.114  0.00  0.00     0.161 C 
ATOM      2  C   LIG d   1      -6.837  91.871 117.396  0.00  0.00     0.016 C 
ATOM      3  C   LIG d   1      -6.521  90.777 116.558  0.00  0.00     0.038 C 
ATOM      4  C   LIG d   1      -5.227  90.239 116.498  0.00  0.00     0.028 C 
ATOM      5  C   LIG d   1      -4.133  91.254 116.814  0.00  0.00    -0.047 C 
ATOM      6  C   LIG d   1      -4.471  91.957 118.149  0.00  0.00     0.091 C 
ENDROOT
BRANCH   1   7
ATOM      7  O   LIG d   1      -6.345  92.844 119.454  0.00  0.00    -0.368 OA
BRANCH   7   8
ATOM      8  C   LIG d   1      -7.414  93.813 119.586  0.00  0.00     0.119 C 
BRANCH   8   9
ATOM      9  C   LIG d   1      -6.849  95.025 120.351  0.00  0.00     0.028 C 
ATOM     10  C   LIG d   1      -6.161  96.038 119.421  0.00  0.00     0.006 C 
ENDBRANCH   8   9
BRANCH   8  11
ATOM     11  C   LIG d   1      -8.550  93.275 120.461  0.00  0.00     0.028 C 
ATOM     12  C   LIG d   1      -9.934  93.768 120.012  0.00  0.00     0.006 C 
ENDBRANCH   8  11
ENDBRANCH   7   8
ENDBRANCH   1   7
BRANCH   6  13
ATOM     13  N   LIG d   1      -3.495  93.025 118.490  0.00  0.00    -0.311 N 
ATOM     14  C   LIG d   1      -2.445  92.831 119.285  0.00  0.00     0.210 C 
ATOM     15  C   LIG d   1      -1.577  94.071 119.522  0.00  0.00     0.109 C 
ATOM     16  O   LIG d   1      -2.131  91.743 119.790  0.00  0.00    -0.276 OA
ATOM     17  H   LIG d   1      -3.656  93.932 118.097  0.00  0.00     0.149 HD
ENDBRANCH   6  13
BRANCH   5  18
ATOM     18  N   LIG d   1      -2.849  90.529 116.851  0.00  0.00     0.381 N 
ATOM     19  H   LIG d   1      -2.571  90.285 115.922  0.00  0.00    -0.090 HD
ATOM     20  H   LIG d   1      -2.970  89.681 117.377  0.00  0.00    -0.090 HD
ATOM     21  H   LIG d   1      -2.150  91.095 117.278  0.00  0.00    -0.090 HD
ENDBRANCH   5  18
BRANCH   3  22
ATOM     22  C   LIG d   1      -7.498  90.236 115.737  0.00  0.00     0.382 C 
ATOM     23  O   LIG d   1      -8.132  89.218 116.104  0.00  0.00    -0.241 OA
ATOM     24  O   LIG d   1      -7.722  90.726 114.614  0.00  0.00    -0.241 OA
ENDBRANCH   3  22
TORSDOF 7
ENDMDL
MODEL 8
REMARK VINA RESULT:      -5.1     18.795     20.845
REMARK  7 active torsions:
REMARK  status: ('A' for Active; 'I' for Inactive)
REMARK    1  A    between atoms: C_2  and  C_3 
REMARK    2  A    between atoms: C_3  and  O_6 
REMARK    3  A    between atoms: C_3  and  C_4 
REMARK    4  A    between atoms: C_7  and  O_6 
REMARK    5  A    between atoms: C_9  and  C_10 
REMARK    6  A    between atoms: N_15  and  C_14 
REMARK    7  A    between atoms: N_20  and  C_19 
REMARK       I    between atoms: C_22  and  N_20 
ROOT
ATOM      1  C   LIG d   1      -8.541  78.391 118.589  0.00  0.00     0.161 C 
ATOM      2  C   LIG d   1      -8.712  79.581 117.863  0.00  0.00     0.016 C 
ATOM      3  C   LIG d   1      -8.734  80.862 118.461  0.00  0.00     0.038 C 
ATOM      4  C   LIG d   1      -8.433  81.051 119.818  0.00  0.00     0.028 C 
ATOM      5  C   LIG d   1      -8.752  79.838 120.685  0.00  0.00    -0.047 C 
ATOM      6  C   LIG d   1      -8.100  78.586 120.055  0.00  0.00     0.091 C 
ENDROOT
BRANCH   1   7
ATOM      7  O   LIG d   1      -7.618  77.526 117.899  0.00  0.00    -0.368 OA
BRANCH   7   8
ATOM      8  C   LIG d   1      -8.208  76.490 117.076  0.00  0.00     0.119 C 
BRANCH   8   9
ATOM      9  C   LIG d   1      -8.184  75.182 117.890  0.00  0.00     0.028 C 
ATOM     10  C   LIG d   1      -7.887  73.952 117.016  0.00  0.00     0.006 C 
ENDBRANCH   8   9
BRANCH   8  11
ATOM     11  C   LIG d   1      -7.356  76.211 115.834  0.00  0.00     0.028 C 
ATOM     12  C   LIG d   1      -5.992  76.917 115.877  0.00  0.00     0.006 C 
ENDBRANCH   8  11
ENDBRANCH   7   8
ENDBRANCH   1   7
BRANCH   6  13
ATOM     13  N   LIG d   1      -8.434  77.340 120.794  0.00  0.00    -0.311 N 
ATOM     14  C   LIG d   1      -7.698  76.864 121.797  0.00  0.00     0.210 C 
ATOM     15  C   LIG d   1      -8.208  75.555 122.408  0.00  0.00     0.109 C 
ATOM     16  O   LIG d   1      -6.688  77.417 122.258  0.00  0.00    -0.276 OA
ATOM     17  H   LIG d   1      -9.254  76.844 120.505  0.00  0.00     0.149 HD
ENDBRANCH   6  13
BRANCH   5  18
ATOM     18  N   LIG d   1      -8.263  80.122 122.047  0.00  0.00     0.381 N 
ATOM     19  H   LIG d   1      -7.282  79.930 122.101  0.00  0.00    -0.090 HD
ATOM     20  H   LIG d   1      -8.738  79.519 122.695  0.00  0.00    -0.090 HD
ATOM     21  H   LIG d   1      -8.436  81.075 122.280  0.00  0.00    -0.090 HD
ENDBRANCH   5  18
BRANCH   3  22
ATOM     22  C   LIG d   1      -9.099  81.967 117.707  0.00  0.00     0.382 C 
ATOM     23  O   LIG d   1      -8.834  82.005 116.482  0.00  0.00    -0.241 OA
ATOM     24  O   LIG d   1      -9.651  82.945 118.246  0.00  0.00    -0.241 OA
ENDBRANCH   3  22
TORSDOF 7
ENDMDL
MODEL 9
REMARK VINA RESULT:      -5.0     31.455     33.293
REMARK  7 active torsions:
REMARK  status: ('A' for Active; 'I' for Inactive)
REMARK    1  A    between atoms: C_2  and  C_3 
REMARK    2  A    between atoms: C_3  and  O_6 
REMARK    3  A    between atoms: C_3  and  C_4 
REMARK    4  A    between atoms: C_7  and  O_6 
REMARK    5  A    between atoms: C_9  and  C_10 
REMARK    6  A    between atoms: N_15  and  C_14 
REMARK    7  A    between atoms: N_20  and  C_19 
REMARK       I    between atoms: C_22  and  N_20 
ROOT
ATOM      1  C   LIG d   1      -4.984  92.424 118.348  0.00  0.00     0.161 C 
ATOM      2  C   LIG d   1      -5.482  91.491 117.424  0.00  0.00     0.016 C 
ATOM      3  C   LIG d   1      -6.495  91.791 116.484  0.00  0.00     0.038 C 
ATOM      4  C   LIG d   1      -6.975  93.097 116.304  0.00  0.00     0.028 C 
ATOM      5  C   LIG d   1      -6.864  93.962 117.554  0.00  0.00    -0.047 C 
ATOM      6  C   LIG d   1      -5.416  93.883 118.092  0.00  0.00     0.091 C 
ENDROOT
BRANCH   1   7
ATOM      7  O   LIG d   1      -3.547  92.331 118.409  0.00  0.00    -0.368 OA
BRANCH   7   8
ATOM      8  C   LIG d   1      -3.000  91.665 119.574  0.00  0.00     0.119 C 
BRANCH   8   9
ATOM      9  C   LIG d   1      -2.089  92.673 120.299  0.00  0.00     0.028 C 
ATOM     10  C   LIG d   1      -1.332  93.589 119.322  0.00  0.00     0.006 C 
ENDBRANCH   8   9
BRANCH   8  11
ATOM     11  C   LIG d   1      -2.083  90.505 119.173  0.00  0.00     0.028 C 
ATOM     12  C   LIG d   1      -1.977  90.328 117.650  0.00  0.00     0.006 C 
ENDBRANCH   8  11
ENDBRANCH   7   8
ENDBRANCH   1   7
BRANCH   6  13
ATOM     13  N   LIG d   1      -5.241  94.634 119.362  0.00  0.00    -0.311 N 
ATOM     14  C   LIG d   1      -4.398  95.655 119.500  0.00  0.00     0.210 C 
ATOM     15  C   LIG d   1      -4.357  96.276 120.900  0.00  0.00     0.109 C 
ATOM     16  O   LIG d   1      -3.702  96.126 118.587  0.00  0.00    -0.276 OA
ATOM     17  H   LIG d   1      -5.790  94.338 120.146  0.00  0.00     0.149 HD
ENDBRANCH   6  13
BRANCH   5  18
ATOM     18  N   LIG d   1      -7.270  95.332 117.187  0.00  0.00     0.381 N 
ATOM     19  H   LIG d   1      -6.636  95.993 117.590  0.00  0.00    -0.090 HD
ATOM     20  H   LIG d   1      -8.187  95.509 117.556  0.00  0.00    -0.090 HD
ATOM     21  H   LIG d   1      -7.278  95.431 116.196  0.00  0.00    -0.090 HD
ENDBRANCH   5  18
BRANCH   3  22
ATOM     22  C   LIG d   1      -7.067  90.770 115.741  0.00  0.00     0.382 C 
ATOM     23  O   LIG d   1      -7.734  91.041 114.713  0.00  0.00    -0.241 OA
ATOM     24  O   LIG d   1      -6.963  89.585 116.109  0.00  0.00    -0.241 OA
ENDBRANCH   3  22
TORSDOF 7
ENDMDL
