MODEL 1
REMARK VINA RESULT:      -5.5      0.000      0.000
REMARK  7 active torsions:
REMARK  status: ('A' for Active; 'I' for Inactive)
REMARK    1  A    between atoms: C_2  and  C_3 
REMARK    2  A    between atoms: C_3  and  O_6 
REMARK    3  A    between atoms: C_3  and  C_4 
REMARK    4  A    between atoms: C_7  and  O_6 
REMARK    5  A    between atoms: C_9  and  C_10 
REMARK    6  A    between atoms: N_15  and  C_14 
REMARK    7  A    between atoms: N_20  and  C_19 
REMARK       I    between atoms: C_22  and  N_20 
ROOT
ATOM      1  C   LIG d   1      -3.602  59.088 118.619  0.00  0.00     0.161 C 
ATOM      2  C   LIG d   1      -2.780  58.835 117.508  0.00  0.00     0.016 C 
ATOM      3  C   LIG d   1      -1.425  59.231 117.436  0.00  0.00     0.038 C 
ATOM      4  C   LIG d   1      -0.752  59.776 118.540  0.00  0.00     0.028 C 
ATOM      5  C   LIG d   1      -1.674  60.510 119.509  0.00  0.00    -0.047 C 
ATOM      6  C   LIG d   1      -2.856  59.583 119.875  0.00  0.00     0.091 C 
ENDROOT
BRANCH   1   7
ATOM      7  O   LIG d   1      -4.381  57.915 118.928  0.00  0.00    -0.368 OA
BRANCH   7   8
ATOM      8  C   LIG d   1      -3.658  56.809 119.523  0.00  0.00     0.119 C 
BRANCH   8   9
ATOM      9  C   LIG d   1      -4.012  55.541 118.722  0.00  0.00     0.028 C 
ATOM     10  C   LIG d   1      -2.819  55.008 117.911  0.00  0.00     0.006 C 
ENDBRANCH   8   9
BRANCH   8  11
ATOM     11  C   LIG d   1      -4.139  56.534 120.951  0.00  0.00     0.028 C 
ATOM     12  C   LIG d   1      -2.995  56.138 121.898  0.00  0.00     0.006 C 
ENDBRANCH   8  11
ENDBRANCH   7   8
ENDBRANCH   1   7
BRANCH   6  13
ATOM     13  N   LIG d   1      -3.850  60.254 120.754  0.00  0.00    -0.311 N 
ATOM     14  C   LIG d   1      -3.829  60.169 122.083  0.00  0.00     0.210 C 
ATOM     15  C   LIG d   1      -4.958  60.919 122.796  0.00  0.00     0.109 C 
ATOM     16  O   LIG d   1      -2.964  59.570 122.740  0.00  0.00    -0.276 OA
ATOM     17  H   LIG d   1      -4.569  60.787 120.305  0.00  0.00     0.149 HD
ENDBRANCH   6  13
BRANCH   5  18
ATOM     18  N   LIG d   1      -0.867  60.907 120.677  0.00  0.00     0.381 N 
ATOM     19  H   LIG d   1       0.080  60.609 120.552  0.00  0.00    -0.090 HD
ATOM     20  H   LIG d   1      -1.234  60.454 121.496  0.00  0.00    -0.090 HD
ATOM     21  H   LIG d   1      -0.898  61.896 120.794  0.00  0.00    -0.090 HD
ENDBRANCH   5  18
BRANCH   3  22
ATOM     22  C   LIG d   1      -0.738  59.117 116.237  0.00  0.00     0.382 C 
ATOM     23  O   LIG d   1       0.132  58.224 116.094  0.00  0.00    -0.241 OA
ATOM     24  O   LIG d   1      -0.946  59.925 115.311  0.00  0.00    -0.241 OA
ENDBRANCH   3  22
TORSDOF 7
ENDMDL
MODEL 2
REMARK VINA RESULT:      -5.3     32.429     34.396
REMARK  7 active torsions:
REMARK  status: ('A' for Active; 'I' for Inactive)
REMARK    1  A    between atoms: C_2  and  C_3 
REMARK    2  A    between atoms: C_3  and  O_6 
REMARK    3  A    between atoms: C_3  and  C_4 
REMARK    4  A    between atoms: C_7  and  O_6 
REMARK    5  A    between atoms: C_9  and  C_10 
REMARK    6  A    between atoms: N_15  and  C_14 
REMARK    7  A    between atoms: N_20  and  C_19 
REMARK       I    between atoms: C_22  and  N_20 
ROOT
ATOM      1  C   LIG d   1      -5.485  92.813 117.219  0.00  0.00     0.161 C 
ATOM      2  C   LIG d   1      -6.600  92.054 116.827  0.00  0.00     0.016 C 
ATOM      3  C   LIG d   1      -6.502  90.766 116.253  0.00  0.00     0.038 C 
ATOM      4  C   LIG d   1      -5.280  90.081 116.171  0.00  0.00     0.028 C 
ATOM      5  C   LIG d   1      -4.072  91.008 116.090  0.00  0.00    -0.047 C 
ATOM      6  C   LIG d   1      -4.150  92.038 117.240  0.00  0.00     0.091 C 
ENDROOT
BRANCH   1   7
ATOM      7  O   LIG d   1      -5.732  93.418 118.504  0.00  0.00    -0.368 OA
BRANCH   7   8
ATOM      8  C   LIG d   1      -6.043  94.833 118.492  0.00  0.00     0.119 C 
BRANCH   8   9
ATOM      9  C   LIG d   1      -5.019  95.539 119.402  0.00  0.00     0.028 C 
ATOM     10  C   LIG d   1      -4.765  94.769 120.708  0.00  0.00     0.006 C 
ENDBRANCH   8   9
BRANCH   8  11
ATOM     11  C   LIG d   1      -7.409  95.108 119.129  0.00  0.00     0.028 C 
ATOM     12  C   LIG d   1      -8.281  96.050 118.284  0.00  0.00     0.006 C 
ENDBRANCH   8  11
ENDBRANCH   7   8
ENDBRANCH   1   7
BRANCH   6  13
ATOM     13  N   LIG d   1      -3.050  93.035 117.184  0.00  0.00    -0.311 N 
ATOM     14  C   LIG d   1      -2.240  93.292 118.210  0.00  0.00     0.210 C 
ATOM     15  C   LIG d   1      -1.185  94.371 117.947  0.00  0.00     0.109 C 
ATOM     16  O   LIG d   1      -2.275  92.705 119.302  0.00  0.00    -0.276 OA
ATOM     17  H   LIG d   1      -2.930  93.535 116.324  0.00  0.00     0.149 HD
ENDBRANCH   6  13
BRANCH   5  18
ATOM     18  N   LIG d   1      -2.861  90.167 116.148  0.00  0.00     0.381 N 
ATOM     19  H   LIG d   1      -2.181  90.594 116.744  0.00  0.00    -0.090 HD
ATOM     20  H   LIG d   1      -2.470  90.095 115.225  0.00  0.00    -0.090 HD
ATOM     21  H   LIG d   1      -3.092  89.261 116.491  0.00  0.00    -0.090 HD
ENDBRANCH   5  18
BRANCH   3  22
ATOM     22  C   LIG d   1      -7.631  90.164 115.717  0.00  0.00     0.382 C 
ATOM     23  O   LIG d   1      -8.089  89.117 116.235  0.00  0.00    -0.241 OA
ATOM     24  O   LIG d   1      -8.171  90.631 114.697  0.00  0.00    -0.241 OA
ENDBRANCH   3  22
TORSDOF 7
ENDMDL
MODEL 3
REMARK VINA RESULT:      -5.3     31.084     32.902
REMARK  7 active torsions:
REMARK  status: ('A' for Active; 'I' for Inactive)
REMARK    1  A    between atoms: C_2  and  C_3 
REMARK    2  A    between atoms: C_3  and  O_6 
REMARK    3  A    between atoms: C_3  and  C_4 
REMARK    4  A    between atoms: C_7  and  O_6 
REMARK    5  A    between atoms: C_9  and  C_10 
REMARK    6  A    between atoms: N_15  and  C_14 
REMARK    7  A    between atoms: N_20  and  C_19 
REMARK       I    between atoms: C_22  and  N_20 
ROOT
ATOM      1  C   LIG d   1      -4.052  90.837 117.120  0.00  0.00     0.161 C 
ATOM      2  C   LIG d   1      -5.132  90.306 116.396  0.00  0.00     0.016 C 
ATOM      3  C   LIG d   1      -6.325  91.020 116.142  0.00  0.00     0.038 C 
ATOM      4  C   LIG d   1      -6.460  92.377 116.469  0.00  0.00     0.028 C 
ATOM      5  C   LIG d   1      -5.592  92.806 117.648  0.00  0.00    -0.047 C 
ATOM      6  C   LIG d   1      -4.137  92.354 117.389  0.00  0.00     0.091 C 
ENDROOT
BRANCH   1   7
ATOM      7  O   LIG d   1      -2.813  90.514 116.458  0.00  0.00    -0.368 OA
BRANCH   7   8
ATOM      8  C   LIG d   1      -2.151  89.303 116.898  0.00  0.00     0.119 C 
BRANCH   8   9
ATOM      9  C   LIG d   1      -2.250  89.254 118.435  0.00  0.00     0.028 C 
ATOM     10  C   LIG d   1      -1.972  87.849 118.996  0.00  0.00     0.006 C 
ENDBRANCH   8   9
BRANCH   8  11
ATOM     11  C   LIG d   1      -0.652  89.343 116.589  0.00  0.00     0.028 C 
ATOM     12  C   LIG d   1      -0.013  90.703 116.910  0.00  0.00     0.006 C 
ENDBRANCH   8  11
ENDBRANCH   7   8
ENDBRANCH   1   7
BRANCH   6  13
ATOM     13  N   LIG d   1      -3.237  92.660 118.532  0.00  0.00    -0.311 N 
ATOM     14  C   LIG d   1      -2.123  93.380 118.415  0.00  0.00     0.210 C 
ATOM     15  C   LIG d   1      -1.330  93.560 119.714  0.00  0.00     0.109 C 
ATOM     16  O   LIG d   1      -1.733  93.914 117.366  0.00  0.00    -0.276 OA
ATOM     17  H   LIG d   1      -3.495  92.291 119.426  0.00  0.00     0.149 HD
ENDBRANCH   6  13
BRANCH   5  18
ATOM     18  N   LIG d   1      -5.727  94.268 117.792  0.00  0.00     0.381 N 
ATOM     19  H   LIG d   1      -5.289  94.726 117.018  0.00  0.00    -0.090 HD
ATOM     20  H   LIG d   1      -5.261  94.556 118.634  0.00  0.00    -0.090 HD
ATOM     21  H   LIG d   1      -6.690  94.519 117.834  0.00  0.00    -0.090 HD
ENDBRANCH   5  18
BRANCH   3  22
ATOM     22  C   LIG d   1      -7.415  90.364 115.590  0.00  0.00     0.382 C 
ATOM     23  O   LIG d   1      -7.831  89.297 116.104  0.00  0.00    -0.241 OA
ATOM     24  O   LIG d   1      -7.959  90.801 114.559  0.00  0.00    -0.241 OA
ENDBRANCH   3  22
TORSDOF 7
ENDMDL
MODEL 4
REMARK VINA RESULT:      -5.1      2.330      4.342
REMARK  7 active torsions:
REMARK  status: ('A' for Active; 'I' for Inactive)
REMARK    1  A    between atoms: C_2  and  C_3 
REMARK    2  A    between atoms: C_3  and  O_6 
REMARK    3  A    between atoms: C_3  and  C_4 
REMARK    4  A    between atoms: C_7  and  O_6 
REMARK    5  A    between atoms: C_9  and  C_10 
REMARK    6  A    between atoms: N_15  and  C_14 
REMARK    7  A    between atoms: N_20  and  C_19 
REMARK       I    between atoms: C_22  and  N_20 
ROOT
ATOM      1  C   LIG d   1      -1.148  59.606 119.897  0.00  0.00     0.161 C 
ATOM      2  C   LIG d   1      -0.511  59.548 118.647  0.00  0.00     0.016 C 
ATOM      3  C   LIG d   1      -1.198  59.313 117.434  0.00  0.00     0.038 C 
ATOM      4  C   LIG d   1      -2.599  59.269 117.371  0.00  0.00     0.028 C 
ATOM      5  C   LIG d   1      -3.249  58.819 118.675  0.00  0.00    -0.047 C 
ATOM      6  C   LIG d   1      -2.688  59.671 119.836  0.00  0.00     0.091 C 
ENDROOT
BRANCH   1   7
ATOM      7  O   LIG d   1      -0.629  60.714 120.659  0.00  0.00    -0.368 OA
BRANCH   7   8
ATOM      8  C   LIG d   1       0.126  60.372 121.848  0.00  0.00     0.119 C 
BRANCH   8   9
ATOM      9  C   LIG d   1       0.039  61.571 122.812  0.00  0.00     0.028 C 
ATOM     10  C   LIG d   1      -0.797  61.258 124.064  0.00  0.00     0.006 C 
ENDBRANCH   8   9
BRANCH   8  11
ATOM     11  C   LIG d   1       1.616  60.211 121.533  0.00  0.00     0.028 C 
ATOM     12  C   LIG d   1       2.518  60.986 122.508  0.00  0.00     0.006 C 
ENDBRANCH   8  11
ENDBRANCH   7   8
ENDBRANCH   1   7
BRANCH   6  13
ATOM     13  N   LIG d   1      -3.210  59.240 121.159  0.00  0.00    -0.311 N 
ATOM     14  C   LIG d   1      -3.677  60.087 122.075  0.00  0.00     0.210 C 
ATOM     15  C   LIG d   1      -4.147  59.434 123.379  0.00  0.00     0.109 C 
ATOM     16  O   LIG d   1      -3.776  61.313 121.919  0.00  0.00    -0.276 OA
ATOM     17  H   LIG d   1      -3.195  58.258 121.357  0.00  0.00     0.149 HD
ENDBRANCH   6  13
BRANCH   5  18
ATOM     18  N   LIG d   1      -4.710  58.952 118.513  0.00  0.00     0.381 N 
ATOM     19  H   LIG d   1      -5.120  59.252 119.375  0.00  0.00    -0.090 HD
ATOM     20  H   LIG d   1      -5.093  58.053 118.278  0.00  0.00    -0.090 HD
ATOM     21  H   LIG d   1      -4.915  59.608 117.793  0.00  0.00    -0.090 HD
ENDBRANCH   5  18
BRANCH   3  22
ATOM     22  C   LIG d   1      -0.480  59.079 116.271  0.00  0.00     0.382 C 
ATOM     23  O   LIG d   1      -0.593  59.860 115.296  0.00  0.00    -0.241 OA
ATOM     24  O   LIG d   1       0.247  58.072 116.169  0.00  0.00    -0.241 OA
ENDBRANCH   3  22
TORSDOF 7
ENDMDL
MODEL 5
REMARK VINA RESULT:      -5.0     31.510     33.338
REMARK  7 active torsions:
REMARK  status: ('A' for Active; 'I' for Inactive)
REMARK    1  A    between atoms: C_2  and  C_3 
REMARK    2  A    between atoms: C_3  and  O_6 
REMARK    3  A    between atoms: C_3  and  C_4 
REMARK    4  A    between atoms: C_7  and  O_6 
REMARK    5  A    between atoms: C_9  and  C_10 
REMARK    6  A    between atoms: N_15  and  C_14 
REMARK    7  A    between atoms: N_20  and  C_19 
REMARK       I    between atoms: C_22  and  N_20 
ROOT
ATOM      1  C   LIG d   1      -3.566  91.454 117.641  0.00  0.00     0.161 C 
ATOM      2  C   LIG d   1      -4.168  90.583 116.718  0.00  0.00     0.016 C 
ATOM      3  C   LIG d   1      -5.425  90.831 116.119  0.00  0.00     0.038 C 
ATOM      4  C   LIG d   1      -6.100  92.049 116.290  0.00  0.00     0.028 C 
ATOM      5  C   LIG d   1      -5.772  92.744 117.607  0.00  0.00    -0.047 C 
ATOM      6  C   LIG d   1      -4.236  92.839 117.755  0.00  0.00     0.091 C 
ENDROOT
BRANCH   1   7
ATOM      7  O   LIG d   1      -2.165  91.598 117.335  0.00  0.00    -0.368 OA
BRANCH   7   8
ATOM      8  C   LIG d   1      -1.293  90.556 117.836  0.00  0.00     0.119 C 
BRANCH   8   9
ATOM      9  C   LIG d   1      -0.073  91.243 118.480  0.00  0.00     0.028 C 
ATOM     10  C   LIG d   1       0.420  92.450 117.663  0.00  0.00     0.006 C 
ENDBRANCH   8   9
BRANCH   8  11
ATOM     11  C   LIG d   1      -0.725  89.708 116.694  0.00  0.00     0.028 C 
ATOM     12  C   LIG d   1      -1.170  88.238 116.765  0.00  0.00     0.006 C 
ENDBRANCH   8  11
ENDBRANCH   7   8
ENDBRANCH   1   7
BRANCH   6  13
ATOM     13  N   LIG d   1      -3.828  93.431 119.055  0.00  0.00    -0.311 N 
ATOM     14  C   LIG d   1      -2.846  94.323 119.179  0.00  0.00     0.210 C 
ATOM     15  C   LIG d   1      -2.574  94.791 120.612  0.00  0.00     0.109 C 
ATOM     16  O   LIG d   1      -2.197  94.796 118.234  0.00  0.00    -0.276 OA
ATOM     17  H   LIG d   1      -4.323  93.127 119.871  0.00  0.00     0.149 HD
ENDBRANCH   6  13
BRANCH   5  18
ATOM     18  N   LIG d   1      -6.434  94.062 117.592  0.00  0.00     0.381 N 
ATOM     19  H   LIG d   1      -7.079  94.108 116.828  0.00  0.00    -0.090 HD
ATOM     20  H   LIG d   1      -5.738  94.774 117.461  0.00  0.00    -0.090 HD
ATOM     21  H   LIG d   1      -6.915  94.211 118.452  0.00  0.00    -0.090 HD
ENDBRANCH   5  18
BRANCH   3  22
ATOM     22  C   LIG d   1      -6.038  89.837 115.371  0.00  0.00     0.382 C 
ATOM     23  O   LIG d   1      -7.253  89.581 115.545  0.00  0.00    -0.241 OA
ATOM     24  O   LIG d   1      -5.379  89.164 114.555  0.00  0.00    -0.241 OA
ENDBRANCH   3  22
TORSDOF 7
ENDMDL
MODEL 6
REMARK VINA RESULT:      -5.0     33.418     35.396
REMARK  7 active torsions:
REMARK  status: ('A' for Active; 'I' for Inactive)
REMARK    1  A    between atoms: C_2  and  C_3 
REMARK    2  A    between atoms: C_3  and  O_6 
REMARK    3  A    between atoms: C_3  and  C_4 
REMARK    4  A    between atoms: C_7  and  O_6 
REMARK    5  A    between atoms: C_9  and  C_10 
REMARK    6  A    between atoms: N_15  and  C_14 
REMARK    7  A    between atoms: N_20  and  C_19 
REMARK       I    between atoms: C_22  and  N_20 
ROOT
ATOM      1  C   LIG d   1      -5.059  93.669 118.720  0.00  0.00     0.161 C 
ATOM      2  C   LIG d   1      -4.862  94.412 119.897  0.00  0.00     0.016 C 
ATOM      3  C   LIG d   1      -5.756  95.411 120.345  0.00  0.00     0.038 C 
ATOM      4  C   LIG d   1      -6.994  95.632 119.723  0.00  0.00     0.028 C 
ATOM      5  C   LIG d   1      -7.004  95.257 118.245  0.00  0.00    -0.047 C 
ATOM      6  C   LIG d   1      -6.459  93.819 118.088  0.00  0.00     0.091 C 
ENDROOT
BRANCH   1   7
ATOM      7  O   LIG d   1      -4.766  92.279 118.965  0.00  0.00    -0.368 OA
BRANCH   7   8
ATOM      8  C   LIG d   1      -3.442  91.830 118.583  0.00  0.00     0.119 C 
BRANCH   8   9
ATOM      9  C   LIG d   1      -3.020  92.638 117.341  0.00  0.00     0.028 C 
ATOM     10  C   LIG d   1      -1.660  93.333 117.528  0.00  0.00     0.006 C 
ENDBRANCH   8   9
BRANCH   8  11
ATOM     11  C   LIG d   1      -3.460  90.368 118.129  0.00  0.00     0.028 C 
ATOM     12  C   LIG d   1      -3.538  90.220 116.601  0.00  0.00     0.006 C 
ENDBRANCH   8  11
ENDBRANCH   7   8
ENDBRANCH   1   7
BRANCH   6  13
ATOM     13  N   LIG d   1      -6.356  93.403 116.665  0.00  0.00    -0.311 N 
ATOM     14  C   LIG d   1      -6.626  92.170 116.240  0.00  0.00     0.210 C 
ATOM     15  C   LIG d   1      -6.437  91.949 114.736  0.00  0.00     0.109 C 
ATOM     16  O   LIG d   1      -7.034  91.247 116.961  0.00  0.00    -0.276 OA
ATOM     17  H   LIG d   1      -6.061  94.098 116.007  0.00  0.00     0.149 HD
ENDBRANCH   6  13
BRANCH   5  18
ATOM     18  N   LIG d   1      -8.388  95.407 117.756  0.00  0.00     0.381 N 
ATOM     19  H   LIG d   1      -8.936  94.621 118.046  0.00  0.00    -0.090 HD
ATOM     20  H   LIG d   1      -8.377  95.431 116.752  0.00  0.00    -0.090 HD
ATOM     21  H   LIG d   1      -8.786  96.248 118.112  0.00  0.00    -0.090 HD
ENDBRANCH   5  18
BRANCH   3  22
ATOM     22  C   LIG d   1      -5.396  96.229 121.405  0.00  0.00     0.382 C 
ATOM     23  O   LIG d   1      -4.539  97.130 121.239  0.00  0.00    -0.241 OA
ATOM     24  O   LIG d   1      -5.886  96.049 122.536  0.00  0.00    -0.241 OA
ENDBRANCH   3  22
TORSDOF 7
ENDMDL
MODEL 7
REMARK VINA RESULT:      -4.9     32.211     34.038
REMARK  7 active torsions:
REMARK  status: ('A' for Active; 'I' for Inactive)
REMARK    1  A    between atoms: C_2  and  C_3 
REMARK    2  A    between atoms: C_3  and  O_6 
REMARK    3  A    between atoms: C_3  and  C_4 
REMARK    4  A    between atoms: C_7  and  O_6 
REMARK    5  A    between atoms: C_9  and  C_10 
REMARK    6  A    between atoms: N_15  and  C_14 
REMARK    7  A    between atoms: N_20  and  C_19 
REMARK       I    between atoms: C_22  and  N_20 
ROOT
ATOM      1  C   LIG d   1      -4.246  91.850 118.621  0.00  0.00     0.161 C 
ATOM      2  C   LIG d   1      -4.529  90.931 117.596  0.00  0.00     0.016 C 
ATOM      3  C   LIG d   1      -5.494  91.162 116.589  0.00  0.00     0.038 C 
ATOM      4  C   LIG d   1      -6.138  92.400 116.449  0.00  0.00     0.028 C 
ATOM      5  C   LIG d   1      -6.254  93.174 117.758  0.00  0.00    -0.047 C 
ATOM      6  C   LIG d   1      -4.859  93.252 118.420  0.00  0.00     0.091 C 
ENDROOT
BRANCH   1   7
ATOM      7  O   LIG d   1      -2.820  91.949 118.808  0.00  0.00    -0.368 OA
BRANCH   7   8
ATOM      8  C   LIG d   1      -2.025  92.051 117.601  0.00  0.00     0.119 C 
BRANCH   8   9
ATOM      9  C   LIG d   1      -0.825  91.096 117.756  0.00  0.00     0.028 C 
ATOM     10  C   LIG d   1      -0.849  89.953 116.727  0.00  0.00     0.006 C 
ENDBRANCH   8   9
BRANCH   8  11
ATOM     11  C   LIG d   1      -1.415  93.448 117.453  0.00  0.00     0.028 C 
ATOM     12  C   LIG d   1      -0.470  93.812 118.609  0.00  0.00     0.006 C 
ENDBRANCH   8  11
ENDBRANCH   7   8
ENDBRANCH   1   7
BRANCH   6  13
ATOM     13  N   LIG d   1      -4.898  93.920 119.747  0.00  0.00    -0.311 N 
ATOM     14  C   LIG d   1      -4.208  95.023 120.033  0.00  0.00     0.210 C 
ATOM     15  C   LIG d   1      -4.375  95.536 121.466  0.00  0.00     0.109 C 
ATOM     16  O   LIG d   1      -3.499  95.642 119.226  0.00  0.00    -0.276 OA
ATOM     17  H   LIG d   1      -5.473  93.502 120.452  0.00  0.00     0.149 HD
ENDBRANCH   6  13
BRANCH   5  18
ATOM     18  N   LIG d   1      -6.820  94.499 117.443  0.00  0.00     0.381 N 
ATOM     19  H   LIG d   1      -6.507  95.170 118.117  0.00  0.00    -0.090 HD
ATOM     20  H   LIG d   1      -7.822  94.446 117.493  0.00  0.00    -0.090 HD
ATOM     21  H   LIG d   1      -6.540  94.781 116.530  0.00  0.00    -0.090 HD
ENDBRANCH   5  18
BRANCH   3  22
ATOM     22  C   LIG d   1      -5.852  90.132 115.732  0.00  0.00     0.382 C 
ATOM     23  O   LIG d   1      -6.967  89.571 115.857  0.00  0.00    -0.241 OA
ATOM     24  O   LIG d   1      -5.056  89.728 114.863  0.00  0.00    -0.241 OA
ENDBRANCH   3  22
TORSDOF 7
ENDMDL
MODEL 8
REMARK VINA RESULT:      -4.8      3.282      5.112
REMARK  7 active torsions:
REMARK  status: ('A' for Active; 'I' for Inactive)
REMARK    1  A    between atoms: C_2  and  C_3 
REMARK    2  A    between atoms: C_3  and  O_6 
REMARK    3  A    between atoms: C_3  and  C_4 
REMARK    4  A    between atoms: C_7  and  O_6 
REMARK    5  A    between atoms: C_9  and  C_10 
REMARK    6  A    between atoms: N_15  and  C_14 
REMARK    7  A    between atoms: N_20  and  C_19 
REMARK       I    between atoms: C_22  and  N_20 
ROOT
ATOM      1  C   LIG d   1      -0.234  59.757 120.515  0.00  0.00     0.161 C 
ATOM      2  C   LIG d   1       1.143  59.882 120.764  0.00  0.00     0.016 C 
ATOM      3  C   LIG d   1       2.140  59.491 119.840  0.00  0.00     0.038 C 
ATOM      4  C   LIG d   1       1.823  59.086 118.535  0.00  0.00     0.028 C 
ATOM      5  C   LIG d   1       0.435  58.466 118.414  0.00  0.00    -0.047 C 
ATOM      6  C   LIG d   1      -0.599  59.420 119.054  0.00  0.00     0.091 C 
ENDROOT
BRANCH   1   7
ATOM      7  O   LIG d   1      -0.918  60.952 120.940  0.00  0.00    -0.368 OA
BRANCH   7   8
ATOM      8  C   LIG d   1      -1.685  60.846 122.164  0.00  0.00     0.119 C 
BRANCH   8   9
ATOM      9  C   LIG d   1      -3.177  60.884 121.780  0.00  0.00     0.028 C 
ATOM     10  C   LIG d   1      -3.907  59.578 122.135  0.00  0.00     0.006 C 
ENDBRANCH   8   9
BRANCH   8  11
ATOM     11  C   LIG d   1      -1.468  62.065 123.066  0.00  0.00     0.028 C 
ATOM     12  C   LIG d   1       0.015  62.314 123.385  0.00  0.00     0.006 C 
ENDBRANCH   8  11
ENDBRANCH   7   8
ENDBRANCH   1   7
BRANCH   6  13
ATOM     13  N   LIG d   1      -1.972  58.852 119.053  0.00  0.00    -0.311 N 
ATOM     14  C   LIG d   1      -2.984  59.380 118.367  0.00  0.00     0.210 C 
ATOM     15  C   LIG d   1      -4.321  58.649 118.521  0.00  0.00     0.109 C 
ATOM     16  O   LIG d   1      -2.893  60.366 117.621  0.00  0.00    -0.276 OA
ATOM     17  H   LIG d   1      -2.127  58.033 119.608  0.00  0.00     0.149 HD
ENDBRANCH   6  13
BRANCH   5  18
ATOM     18  N   LIG d   1       0.182  58.217 116.982  0.00  0.00     0.381 N 
ATOM     19  H   LIG d   1      -0.070  59.072 116.528  0.00  0.00    -0.090 HD
ATOM     20  H   LIG d   1      -0.586  57.575 116.895  0.00  0.00    -0.090 HD
ATOM     21  H   LIG d   1       0.995  57.832 116.554  0.00  0.00    -0.090 HD
ENDBRANCH   5  18
BRANCH   3  22
ATOM     22  C   LIG d   1       3.469  59.466 120.233  0.00  0.00     0.382 C 
ATOM     23  O   LIG d   1       3.859  58.619 121.072  0.00  0.00    -0.241 OA
ATOM     24  O   LIG d   1       4.274  60.308 119.792  0.00  0.00    -0.241 OA
ENDBRANCH   3  22
TORSDOF 7
ENDMDL
MODEL 9
REMARK VINA RESULT:      -4.8     31.901     33.904
REMARK  7 active torsions:
REMARK  status: ('A' for Active; 'I' for Inactive)
REMARK    1  A    between atoms: C_2  and  C_3 
REMARK    2  A    between atoms: C_3  and  O_6 
REMARK    3  A    between atoms: C_3  and  C_4 
REMARK    4  A    between atoms: C_7  and  O_6 
REMARK    5  A    between atoms: C_9  and  C_10 
REMARK    6  A    between atoms: N_15  and  C_14 
REMARK    7  A    between atoms: N_20  and  C_19 
REMARK       I    between atoms: C_22  and  N_20 
ROOT
ATOM      1  C   LIG d   1      -2.790  92.605 117.334  0.00  0.00     0.161 C 
ATOM      2  C   LIG d   1      -4.193  92.542 117.307  0.00  0.00     0.016 C 
ATOM      3  C   LIG d   1      -4.914  91.353 117.053  0.00  0.00     0.038 C 
ATOM      4  C   LIG d   1      -4.278  90.106 116.958  0.00  0.00     0.028 C 
ATOM      5  C   LIG d   1      -2.834  90.198 116.476  0.00  0.00    -0.047 C 
ATOM      6  C   LIG d   1      -2.082  91.234 117.342  0.00  0.00     0.091 C 
ENDROOT
BRANCH   1   7
ATOM      7  O   LIG d   1      -2.358  93.399 118.456  0.00  0.00    -0.368 OA
BRANCH   7   8
ATOM      8  C   LIG d   1      -1.846  94.718 118.144  0.00  0.00     0.119 C 
BRANCH   8   9
ATOM      9  C   LIG d   1      -0.318  94.681 118.346  0.00  0.00     0.028 C 
ATOM     10  C   LIG d   1       0.091  93.857 119.578  0.00  0.00     0.006 C 
ENDBRANCH   8   9
BRANCH   8  11
ATOM     11  C   LIG d   1      -2.361  95.765 119.136  0.00  0.00     0.028 C 
ATOM     12  C   LIG d   1      -3.751  95.424 119.694  0.00  0.00     0.006 C 
ENDBRANCH   8  11
ENDBRANCH   7   8
ENDBRANCH   1   7
BRANCH   6  13
ATOM     13  N   LIG d   1      -0.684  91.447 116.884  0.00  0.00    -0.311 N 
ATOM     14  C   LIG d   1       0.363  90.809 117.404  0.00  0.00     0.210 C 
ATOM     15  C   LIG d   1       1.718  91.191 116.801  0.00  0.00     0.109 C 
ATOM     16  O   LIG d   1       0.295  89.939 118.286  0.00  0.00    -0.276 OA
ATOM     17  H   LIG d   1      -0.541  92.113 116.151  0.00  0.00     0.149 HD
ENDBRANCH   6  13
BRANCH   5  18
ATOM     18  N   LIG d   1      -2.251  88.845 116.556  0.00  0.00     0.381 N 
ATOM     19  H   LIG d   1      -1.255  88.909 116.612  0.00  0.00    -0.090 HD
ATOM     20  H   LIG d   1      -2.489  88.339 115.721  0.00  0.00    -0.090 HD
ATOM     21  H   LIG d   1      -2.606  88.367 117.355  0.00  0.00    -0.090 HD
ENDBRANCH   5  18
BRANCH   3  22
ATOM     22  C   LIG d   1      -6.285  91.410 116.852  0.00  0.00     0.382 C 
ATOM     23  O   LIG d   1      -6.970  90.360 116.900  0.00  0.00    -0.241 OA
ATOM     24  O   LIG d   1      -6.839  92.492 116.579  0.00  0.00    -0.241 OA
ENDBRANCH   3  22
TORSDOF 7
ENDMDL
