MODEL 1
REMARK VINA RESULT:      -5.1      0.000      0.000
REMARK  7 active torsions:
REMARK  status: ('A' for Active; 'I' for Inactive)
REMARK    1  A    between atoms: C_2  and  C_3 
REMARK    2  A    between atoms: C_3  and  O_6 
REMARK    3  A    between atoms: C_3  and  C_4 
REMARK    4  A    between atoms: C_7  and  O_6 
REMARK    5  A    between atoms: C_9  and  C_10 
REMARK    6  A    between atoms: N_15  and  C_14 
REMARK    7  A    between atoms: N_20  and  C_19 
REMARK       I    between atoms: C_22  and  N_20 
ROOT
ATOM      1  C   LIG d   1      -1.459  60.921 118.974  0.00  0.00     0.161 C 
ATOM      2  C   LIG d   1      -0.058  60.831 119.011  0.00  0.00     0.016 C 
ATOM      3  C   LIG d   1       0.674  60.568 120.192  0.00  0.00     0.038 C 
ATOM      4  C   LIG d   1       0.040  60.225 121.396  0.00  0.00     0.028 C 
ATOM      5  C   LIG d   1      -1.367  60.798 121.524  0.00  0.00    -0.047 C 
ATOM      6  C   LIG d   1      -2.173  60.440 120.255  0.00  0.00     0.091 C 
ENDROOT
BRANCH   1   7
ATOM      7  O   LIG d   1      -1.964  60.214 117.824  0.00  0.00    -0.368 OA
BRANCH   7   8
ATOM      8  C   LIG d   1      -2.177  58.791 117.993  0.00  0.00     0.119 C 
BRANCH   8   9
ATOM      9  C   LIG d   1      -1.280  58.064 116.972  0.00  0.00     0.028 C 
ATOM     10  C   LIG d   1      -0.085  57.360 117.637  0.00  0.00     0.006 C 
ENDBRANCH   8   9
BRANCH   8  11
ATOM     11  C   LIG d   1      -3.610  58.395 117.628  0.00  0.00     0.028 C 
ATOM     12  C   LIG d   1      -4.438  59.575 117.097  0.00  0.00     0.006 C 
ENDBRANCH   8  11
ENDBRANCH   7   8
ENDBRANCH   1   7
BRANCH   6  13
ATOM     13  N   LIG d   1      -3.535  61.035 120.262  0.00  0.00    -0.311 N 
ATOM     14  C   LIG d   1      -4.607  60.405 120.738  0.00  0.00     0.210 C 
ATOM     15  C   LIG d   1      -5.918  61.190 120.631  0.00  0.00     0.109 C 
ATOM     16  O   LIG d   1      -4.592  59.284 121.268  0.00  0.00    -0.276 OA
ATOM     17  H   LIG d   1      -3.633  61.955 119.878  0.00  0.00     0.149 HD
ENDBRANCH   6  13
BRANCH   5  18
ATOM     18  N   LIG d   1      -1.960  60.251 122.759  0.00  0.00     0.381 N 
ATOM     19  H   LIG d   1      -1.234  59.974 123.390  0.00  0.00    -0.090 HD
ATOM     20  H   LIG d   1      -2.502  59.437 122.526  0.00  0.00    -0.090 HD
ATOM     21  H   LIG d   1      -2.542  60.935 123.190  0.00  0.00    -0.090 HD
ENDBRANCH   5  18
BRANCH   3  22
ATOM     22  C   LIG d   1       2.055  60.685 120.185  0.00  0.00     0.382 C 
ATOM     23  O   LIG d   1       2.647  61.181 121.174  0.00  0.00    -0.241 OA
ATOM     24  O   LIG d   1       2.713  60.343 119.184  0.00  0.00    -0.241 OA
ENDBRANCH   3  22
TORSDOF 7
ENDMDL
MODEL 2
REMARK VINA RESULT:      -5.1      3.499      5.157
REMARK  7 active torsions:
REMARK  status: ('A' for Active; 'I' for Inactive)
REMARK    1  A    between atoms: C_2  and  C_3 
REMARK    2  A    between atoms: C_3  and  O_6 
REMARK    3  A    between atoms: C_3  and  C_4 
REMARK    4  A    between atoms: C_7  and  O_6 
REMARK    5  A    between atoms: C_9  and  C_10 
REMARK    6  A    between atoms: N_15  and  C_14 
REMARK    7  A    between atoms: N_20  and  C_19 
REMARK       I    between atoms: C_22  and  N_20 
ROOT
ATOM      1  C   LIG d   1      -0.281  58.371 118.522  0.00  0.00     0.161 C 
ATOM      2  C   LIG d   1       0.191  59.279 117.559  0.00  0.00     0.016 C 
ATOM      3  C   LIG d   1       1.092  58.923 116.530  0.00  0.00     0.038 C 
ATOM      4  C   LIG d   1       1.468  57.591 116.301  0.00  0.00     0.028 C 
ATOM      5  C   LIG d   1       1.415  56.723 117.553  0.00  0.00    -0.047 C 
ATOM      6  C   LIG d   1       0.031  56.890 118.221  0.00  0.00     0.091 C 
ENDROOT
BRANCH   1   7
ATOM      7  O   LIG d   1      -1.697  58.555 118.715  0.00  0.00    -0.368 OA
BRANCH   7   8
ATOM      8  C   LIG d   1      -2.558  57.992 117.695  0.00  0.00     0.119 C 
BRANCH   8   9
ATOM      9  C   LIG d   1      -3.184  59.165 116.916  0.00  0.00     0.028 C 
ATOM     10  C   LIG d   1      -4.649  59.416 117.310  0.00  0.00     0.006 C 
ENDBRANCH   8   9
BRANCH   8  11
ATOM     11  C   LIG d   1      -3.741  57.242 118.316  0.00  0.00     0.028 C 
ATOM     12  C   LIG d   1      -3.767  55.753 117.936  0.00  0.00     0.006 C 
ENDBRANCH   8  11
ENDBRANCH   7   8
ENDBRANCH   1   7
BRANCH   6  13
ATOM     13  N   LIG d   1      -0.076  56.139 119.499  0.00  0.00    -0.311 N 
ATOM     14  C   LIG d   1      -0.498  54.879 119.577  0.00  0.00     0.210 C 
ATOM     15  C   LIG d   1      -0.552  54.300 120.994  0.00  0.00     0.109 C 
ATOM     16  O   LIG d   1      -0.804  54.174 118.602  0.00  0.00    -0.276 OA
ATOM     17  H   LIG d   1       0.182  56.625 120.336  0.00  0.00     0.149 HD
ENDBRANCH   6  13
BRANCH   5  18
ATOM     18  N   LIG d   1       1.696  55.334 117.145  0.00  0.00     0.381 N 
ATOM     19  H   LIG d   1       2.415  54.949 117.725  0.00  0.00    -0.090 HD
ATOM     20  H   LIG d   1       2.024  55.334 116.195  0.00  0.00    -0.090 HD
ATOM     21  H   LIG d   1       0.870  54.783 117.218  0.00  0.00    -0.090 HD
ENDBRANCH   5  18
BRANCH   3  22
ATOM     22  C   LIG d   1       1.659  59.912 115.740  0.00  0.00     0.382 C 
ATOM     23  O   LIG d   1       1.111  60.244 114.661  0.00  0.00    -0.241 OA
ATOM     24  O   LIG d   1       2.735  60.446 116.071  0.00  0.00    -0.241 OA
ENDBRANCH   3  22
TORSDOF 7
ENDMDL
MODEL 3
REMARK VINA RESULT:      -5.1      2.880      4.669
REMARK  7 active torsions:
REMARK  status: ('A' for Active; 'I' for Inactive)
REMARK    1  A    between atoms: C_2  and  C_3 
REMARK    2  A    between atoms: C_3  and  O_6 
REMARK    3  A    between atoms: C_3  and  C_4 
REMARK    4  A    between atoms: C_7  and  O_6 
REMARK    5  A    between atoms: C_9  and  C_10 
REMARK    6  A    between atoms: N_15  and  C_14 
REMARK    7  A    between atoms: N_20  and  C_19 
REMARK       I    between atoms: C_22  and  N_20 
ROOT
ATOM      1  C   LIG d   1       0.298  59.403 118.337  0.00  0.00     0.161 C 
ATOM      2  C   LIG d   1       1.438  60.177 118.611  0.00  0.00     0.016 C 
ATOM      3  C   LIG d   1       2.726  59.868 118.115  0.00  0.00     0.038 C 
ATOM      4  C   LIG d   1       2.934  58.842 117.181  0.00  0.00     0.028 C 
ATOM      5  C   LIG d   1       1.901  57.724 117.268  0.00  0.00    -0.047 C 
ATOM      6  C   LIG d   1       0.486  58.345 117.230  0.00  0.00     0.091 C 
ENDROOT
BRANCH   1   7
ATOM      7  O   LIG d   1      -0.813  60.265 118.022  0.00  0.00    -0.368 OA
BRANCH   7   8
ATOM      8  C   LIG d   1      -2.032  60.034 118.771  0.00  0.00     0.119 C 
BRANCH   8   9
ATOM      9  C   LIG d   1      -3.198  60.616 117.950  0.00  0.00     0.028 C 
ATOM     10  C   LIG d   1      -4.260  59.557 117.606  0.00  0.00     0.006 C 
ENDBRANCH   8   9
BRANCH   8  11
ATOM     11  C   LIG d   1      -2.033  60.816 120.088  0.00  0.00     0.028 C 
ATOM     12  C   LIG d   1      -2.495  59.968 121.284  0.00  0.00     0.006 C 
ENDBRANCH   8  11
ENDBRANCH   7   8
ENDBRANCH   1   7
BRANCH   6  13
ATOM     13  N   LIG d   1      -0.584  57.327 117.395  0.00  0.00    -0.311 N 
ATOM     14  C   LIG d   1      -1.590  57.173 116.535  0.00  0.00     0.210 C 
ATOM     15  C   LIG d   1      -2.596  56.078 116.904  0.00  0.00     0.109 C 
ATOM     16  O   LIG d   1      -1.727  57.819 115.485  0.00  0.00    -0.276 OA
ATOM     17  H   LIG d   1      -0.534  56.739 118.204  0.00  0.00     0.149 HD
ENDBRANCH   6  13
BRANCH   5  18
ATOM     18  N   LIG d   1       2.155  56.794 116.152  0.00  0.00     0.381 N 
ATOM     19  H   LIG d   1       1.583  57.040 115.369  0.00  0.00    -0.090 HD
ATOM     20  H   LIG d   1       1.910  55.864 116.442  0.00  0.00    -0.090 HD
ATOM     21  H   LIG d   1       3.117  56.827 115.893  0.00  0.00    -0.090 HD
ENDBRANCH   5  18
BRANCH   3  22
ATOM     22  C   LIG d   1       3.828  60.565 118.585  0.00  0.00     0.382 C 
ATOM     23  O   LIG d   1       4.573  61.175 117.781  0.00  0.00    -0.241 OA
ATOM     24  O   LIG d   1       4.113  60.554 119.798  0.00  0.00    -0.241 OA
ENDBRANCH   3  22
TORSDOF 7
ENDMDL
MODEL 4
REMARK VINA RESULT:      -5.1      2.351      3.140
REMARK  7 active torsions:
REMARK  status: ('A' for Active; 'I' for Inactive)
REMARK    1  A    between atoms: C_2  and  C_3 
REMARK    2  A    between atoms: C_3  and  O_6 
REMARK    3  A    between atoms: C_3  and  C_4 
REMARK    4  A    between atoms: C_7  and  O_6 
REMARK    5  A    between atoms: C_9  and  C_10 
REMARK    6  A    between atoms: N_15  and  C_14 
REMARK    7  A    between atoms: N_20  and  C_19 
REMARK       I    between atoms: C_22  and  N_20 
ROOT
ATOM      1  C   LIG d   1      -2.045  59.146 116.974  0.00  0.00     0.161 C 
ATOM      2  C   LIG d   1      -0.863  59.024 116.225  0.00  0.00     0.016 C 
ATOM      3  C   LIG d   1       0.374  59.578 116.628  0.00  0.00     0.038 C 
ATOM      4  C   LIG d   1       0.547  60.166 117.890  0.00  0.00     0.028 C 
ATOM      5  C   LIG d   1      -0.736  60.757 118.464  0.00  0.00    -0.047 C 
ATOM      6  C   LIG d   1      -1.851  59.687 118.406  0.00  0.00     0.091 C 
ENDROOT
BRANCH   1   7
ATOM      7  O   LIG d   1      -2.735  57.881 117.006  0.00  0.00    -0.368 OA
BRANCH   7   8
ATOM      8  C   LIG d   1      -2.574  57.097 118.215  0.00  0.00     0.119 C 
BRANCH   8   9
ATOM      9  C   LIG d   1      -1.605  55.944 117.893  0.00  0.00     0.028 C 
ATOM     10  C   LIG d   1      -0.217  56.149 118.523  0.00  0.00     0.006 C 
ENDBRANCH   8   9
BRANCH   8  11
ATOM     11  C   LIG d   1      -3.887  56.422 118.620  0.00  0.00     0.028 C 
ATOM     12  C   LIG d   1      -3.994  54.975 118.116  0.00  0.00     0.006 C 
ENDBRANCH   8  11
ENDBRANCH   7   8
ENDBRANCH   1   7
BRANCH   6  13
ATOM     13  N   LIG d   1      -3.162  60.210 118.871  0.00  0.00    -0.311 N 
ATOM     14  C   LIG d   1      -3.589  60.105 120.128  0.00  0.00     0.210 C 
ATOM     15  C   LIG d   1      -4.979  60.693 120.390  0.00  0.00     0.109 C 
ATOM     16  O   LIG d   1      -2.934  59.610 121.058  0.00  0.00    -0.276 OA
ATOM     17  H   LIG d   1      -3.744  60.654 118.188  0.00  0.00     0.149 HD
ENDBRANCH   6  13
BRANCH   5  18
ATOM     18  N   LIG d   1      -0.442  61.211 119.836  0.00  0.00     0.381 N 
ATOM     19  H   LIG d   1       0.545  61.193 119.995  0.00  0.00    -0.090 HD
ATOM     20  H   LIG d   1      -0.879  60.583 120.488  0.00  0.00    -0.090 HD
ATOM     21  H   LIG d   1      -0.790  62.135 119.971  0.00  0.00    -0.090 HD
ENDBRANCH   5  18
BRANCH   3  22
ATOM     22  C   LIG d   1       1.445  59.583 115.747  0.00  0.00     0.382 C 
ATOM     23  O   LIG d   1       2.481  60.235 116.022  0.00  0.00    -0.241 OA
ATOM     24  O   LIG d   1       1.371  58.979 114.660  0.00  0.00    -0.241 OA
ENDBRANCH   3  22
TORSDOF 7
ENDMDL
MODEL 5
REMARK VINA RESULT:      -5.0     31.310     32.556
REMARK  7 active torsions:
REMARK  status: ('A' for Active; 'I' for Inactive)
REMARK    1  A    between atoms: C_2  and  C_3 
REMARK    2  A    between atoms: C_3  and  O_6 
REMARK    3  A    between atoms: C_3  and  C_4 
REMARK    4  A    between atoms: C_7  and  O_6 
REMARK    5  A    between atoms: C_9  and  C_10 
REMARK    6  A    between atoms: N_15  and  C_14 
REMARK    7  A    between atoms: N_20  and  C_19 
REMARK       I    between atoms: C_22  and  N_20 
ROOT
ATOM      1  C   LIG d   1      -4.385  91.696 117.983  0.00  0.00     0.161 C 
ATOM      2  C   LIG d   1      -4.943  90.970 116.918  0.00  0.00     0.016 C 
ATOM      3  C   LIG d   1      -5.987  91.462 116.102  0.00  0.00     0.038 C 
ATOM      4  C   LIG d   1      -6.444  92.785 116.201  0.00  0.00     0.028 C 
ATOM      5  C   LIG d   1      -6.261  93.386 117.591  0.00  0.00    -0.047 C 
ATOM      6  C   LIG d   1      -4.795  93.183 118.036  0.00  0.00     0.091 C 
ENDROOT
BRANCH   1   7
ATOM      7  O   LIG d   1      -2.949  91.573 117.960  0.00  0.00    -0.368 OA
BRANCH   7   8
ATOM      8  C   LIG d   1      -2.427  90.225 117.855  0.00  0.00     0.119 C 
BRANCH   8   9
ATOM      9  C   LIG d   1      -2.464  89.604 119.265  0.00  0.00     0.028 C 
ATOM     10  C   LIG d   1      -2.668  88.080 119.229  0.00  0.00     0.006 C 
ENDBRANCH   8   9
BRANCH   8  11
ATOM     11  C   LIG d   1      -0.949  90.230 117.454  0.00  0.00     0.028 C 
ATOM     12  C   LIG d   1      -0.288  91.606 117.630  0.00  0.00     0.006 C 
ENDBRANCH   8  11
ENDBRANCH   7   8
ENDBRANCH   1   7
BRANCH   6  13
ATOM     13  N   LIG d   1      -4.550  93.668 119.419  0.00  0.00    -0.311 N 
ATOM     14  C   LIG d   1      -4.154  94.907 119.703  0.00  0.00     0.210 C 
ATOM     15  C   LIG d   1      -3.940  95.194 121.192  0.00  0.00     0.109 C 
ATOM     16  O   LIG d   1      -3.989  95.806 118.864  0.00  0.00    -0.276 OA
ATOM     17  H   LIG d   1      -4.690  93.013 120.164  0.00  0.00     0.149 HD
ENDBRANCH   6  13
BRANCH   5  18
ATOM     18  N   LIG d   1      -6.651  94.807 117.516  0.00  0.00     0.381 N 
ATOM     19  H   LIG d   1      -5.833  95.379 117.447  0.00  0.00    -0.090 HD
ATOM     20  H   LIG d   1      -7.138  95.055 118.359  0.00  0.00    -0.090 HD
ATOM     21  H   LIG d   1      -7.240  94.958 116.727  0.00  0.00    -0.090 HD
ENDBRANCH   5  18
BRANCH   3  22
ATOM     22  C   LIG d   1      -6.612  90.615 115.200  0.00  0.00     0.382 C 
ATOM     23  O   LIG d   1      -5.952  89.721 114.618  0.00  0.00    -0.241 OA
ATOM     24  O   LIG d   1      -7.819  90.762 114.928  0.00  0.00    -0.241 OA
ENDBRANCH   3  22
TORSDOF 7
ENDMDL
MODEL 6
REMARK VINA RESULT:      -4.9     32.128     33.264
REMARK  7 active torsions:
REMARK  status: ('A' for Active; 'I' for Inactive)
REMARK    1  A    between atoms: C_2  and  C_3 
REMARK    2  A    between atoms: C_3  and  O_6 
REMARK    3  A    between atoms: C_3  and  C_4 
REMARK    4  A    between atoms: C_7  and  O_6 
REMARK    5  A    between atoms: C_9  and  C_10 
REMARK    6  A    between atoms: N_15  and  C_14 
REMARK    7  A    between atoms: N_20  and  C_19 
REMARK       I    between atoms: C_22  and  N_20 
ROOT
ATOM      1  C   LIG d   1      -4.554  92.984 117.861  0.00  0.00     0.161 C 
ATOM      2  C   LIG d   1      -4.144  93.952 118.793  0.00  0.00     0.016 C 
ATOM      3  C   LIG d   1      -4.931  95.070 119.150  0.00  0.00     0.038 C 
ATOM      4  C   LIG d   1      -6.255  95.216 118.710  0.00  0.00     0.028 C 
ATOM      5  C   LIG d   1      -6.528  94.531 117.375  0.00  0.00    -0.047 C 
ATOM      6  C   LIG d   1      -6.040  93.067 117.453  0.00  0.00     0.091 C 
ENDROOT
BRANCH   1   7
ATOM      7  O   LIG d   1      -4.243  91.666 118.356  0.00  0.00    -0.368 OA
BRANCH   7   8
ATOM      8  C   LIG d   1      -3.048  91.049 117.818  0.00  0.00     0.119 C 
BRANCH   8   9
ATOM      9  C   LIG d   1      -3.412  89.606 117.418  0.00  0.00     0.028 C 
ATOM     10  C   LIG d   1      -2.427  88.572 117.988  0.00  0.00     0.006 C 
ENDBRANCH   8   9
BRANCH   8  11
ATOM     11  C   LIG d   1      -1.962  90.910 118.889  0.00  0.00     0.028 C 
ATOM     12  C   LIG d   1      -0.900  92.018 118.808  0.00  0.00     0.006 C 
ENDBRANCH   8  11
ENDBRANCH   7   8
ENDBRANCH   1   7
BRANCH   6  13
ATOM     13  N   LIG d   1      -6.193  92.348 116.162  0.00  0.00    -0.311 N 
ATOM     14  C   LIG d   1      -6.675  91.111 116.064  0.00  0.00     0.210 C 
ATOM     15  C   LIG d   1      -6.730  90.549 114.640  0.00  0.00     0.109 C 
ATOM     16  O   LIG d   1      -7.093  90.437 117.018  0.00  0.00    -0.276 OA
ATOM     17  H   LIG d   1      -5.908  92.833 115.333  0.00  0.00     0.149 HD
ENDBRANCH   6  13
BRANCH   5  18
ATOM     18  N   LIG d   1      -7.974  94.645 117.103  0.00  0.00     0.381 N 
ATOM     19  H   LIG d   1      -8.299  95.551 117.374  0.00  0.00    -0.090 HD
ATOM     20  H   LIG d   1      -8.462  93.958 117.650  0.00  0.00    -0.090 HD
ATOM     21  H   LIG d   1      -8.151  94.496 116.134  0.00  0.00    -0.090 HD
ENDBRANCH   5  18
BRANCH   3  22
ATOM     22  C   LIG d   1      -4.380  96.079 119.926  0.00  0.00     0.382 C 
ATOM     23  O   LIG d   1      -3.134  96.200 120.004  0.00  0.00    -0.241 OA
ATOM     24  O   LIG d   1      -5.113  96.840 120.586  0.00  0.00    -0.241 OA
ENDBRANCH   3  22
TORSDOF 7
ENDMDL
MODEL 7
REMARK VINA RESULT:      -4.8      2.603      4.516
REMARK  7 active torsions:
REMARK  status: ('A' for Active; 'I' for Inactive)
REMARK    1  A    between atoms: C_2  and  C_3 
REMARK    2  A    between atoms: C_3  and  O_6 
REMARK    3  A    between atoms: C_3  and  C_4 
REMARK    4  A    between atoms: C_7  and  O_6 
REMARK    5  A    between atoms: C_9  and  C_10 
REMARK    6  A    between atoms: N_15  and  C_14 
REMARK    7  A    between atoms: N_20  and  C_19 
REMARK       I    between atoms: C_22  and  N_20 
ROOT
ATOM      1  C   LIG d   1      -0.925  60.207 119.327  0.00  0.00     0.161 C 
ATOM      2  C   LIG d   1      -1.218  60.871 120.529  0.00  0.00     0.016 C 
ATOM      3  C   LIG d   1      -0.228  61.298 121.445  0.00  0.00     0.038 C 
ATOM      4  C   LIG d   1       1.140  61.222 121.145  0.00  0.00     0.028 C 
ATOM      5  C   LIG d   1       1.485  60.103 120.169  0.00  0.00    -0.047 C 
ATOM      6  C   LIG d   1       0.567  60.215 118.931  0.00  0.00     0.091 C 
ENDROOT
BRANCH   1   7
ATOM      7  O   LIG d   1      -1.729  60.748 118.261  0.00  0.00    -0.368 OA
BRANCH   7   8
ATOM      8  C   LIG d   1      -2.643  59.824 117.620  0.00  0.00     0.119 C 
BRANCH   8   9
ATOM      9  C   LIG d   1      -4.053  60.441 117.696  0.00  0.00     0.028 C 
ATOM     10  C   LIG d   1      -4.680  60.302 119.094  0.00  0.00     0.006 C 
ENDBRANCH   8   9
BRANCH   8  11
ATOM     11  C   LIG d   1      -2.735  58.505 118.392  0.00  0.00     0.028 C 
ATOM     12  C   LIG d   1      -2.457  57.278 117.509  0.00  0.00     0.006 C 
ENDBRANCH   8  11
ENDBRANCH   7   8
ENDBRANCH   1   7
BRANCH   6  13
ATOM     13  N   LIG d   1       0.781  59.107 117.964  0.00  0.00    -0.311 N 
ATOM     14  C   LIG d   1       1.080  59.302 116.681  0.00  0.00     0.210 C 
ATOM     15  C   LIG d   1       1.240  58.023 115.852  0.00  0.00     0.109 C 
ATOM     16  O   LIG d   1       1.261  60.412 116.157  0.00  0.00    -0.276 OA
ATOM     17  H   LIG d   1       0.685  58.173 118.311  0.00  0.00     0.149 HD
ENDBRANCH   6  13
BRANCH   5  18
ATOM     18  N   LIG d   1       2.918  60.226 119.839  0.00  0.00     0.381 N 
ATOM     19  H   LIG d   1       3.102  61.134 119.461  0.00  0.00    -0.090 HD
ATOM     20  H   LIG d   1       3.151  59.541 119.141  0.00  0.00    -0.090 HD
ATOM     21  H   LIG d   1       3.470  60.080 120.655  0.00  0.00    -0.090 HD
ENDBRANCH   5  18
BRANCH   3  22
ATOM     22  C   LIG d   1      -0.604  61.770 122.693  0.00  0.00     0.382 C 
ATOM     23  O   LIG d   1      -0.322  62.946 123.029  0.00  0.00    -0.241 OA
ATOM     24  O   LIG d   1      -1.183  61.022 123.503  0.00  0.00    -0.241 OA
ENDBRANCH   3  22
TORSDOF 7
ENDMDL
MODEL 8
REMARK VINA RESULT:      -4.8     21.716     23.629
REMARK  7 active torsions:
REMARK  status: ('A' for Active; 'I' for Inactive)
REMARK    1  A    between atoms: C_2  and  C_3 
REMARK    2  A    between atoms: C_3  and  O_6 
REMARK    3  A    between atoms: C_3  and  C_4 
REMARK    4  A    between atoms: C_7  and  O_6 
REMARK    5  A    between atoms: C_9  and  C_10 
REMARK    6  A    between atoms: N_15  and  C_14 
REMARK    7  A    between atoms: N_20  and  C_19 
REMARK       I    between atoms: C_22  and  N_20 
ROOT
ATOM      1  C   LIG d   1      -8.275  81.994 119.900  0.00  0.00     0.161 C 
ATOM      2  C   LIG d   1      -8.376  80.650 119.504  0.00  0.00     0.016 C 
ATOM      3  C   LIG d   1      -9.455  80.141 118.746  0.00  0.00     0.038 C 
ATOM      4  C   LIG d   1     -10.438  80.979 118.200  0.00  0.00     0.028 C 
ATOM      5  C   LIG d   1     -10.650  82.263 118.995  0.00  0.00    -0.047 C 
ATOM      6  C   LIG d   1      -9.281  82.946 119.219  0.00  0.00     0.091 C 
ENDROOT
BRANCH   1   7
ATOM      7  O   LIG d   1      -6.927  82.463 119.698  0.00  0.00    -0.368 OA
BRANCH   7   8
ATOM      8  C   LIG d   1      -6.119  82.610 120.892  0.00  0.00     0.119 C 
BRANCH   8   9
ATOM      9  C   LIG d   1      -5.952  84.119 121.156  0.00  0.00     0.028 C 
ATOM     10  C   LIG d   1      -6.428  84.525 122.561  0.00  0.00     0.006 C 
ENDBRANCH   8   9
BRANCH   8  11
ATOM     11  C   LIG d   1      -4.699  82.077 120.672  0.00  0.00     0.028 C 
ATOM     12  C   LIG d   1      -4.672  80.772 119.861  0.00  0.00     0.006 C 
ENDBRANCH   8  11
ENDBRANCH   7   8
ENDBRANCH   1   7
BRANCH   6  13
ATOM     13  N   LIG d   1      -9.388  84.165 120.062  0.00  0.00    -0.311 N 
ATOM     14  C   LIG d   1      -9.946  84.175 121.271  0.00  0.00     0.210 C 
ATOM     15  C   LIG d   1      -9.970  85.542 121.962  0.00  0.00     0.109 C 
ATOM     16  O   LIG d   1     -10.395  83.174 121.850  0.00  0.00    -0.276 OA
ATOM     17  H   LIG d   1      -9.020  85.016 119.682  0.00  0.00     0.149 HD
ENDBRANCH   6  13
BRANCH   5  18
ATOM     18  N   LIG d   1     -11.599  83.104 118.241  0.00  0.00     0.381 N 
ATOM     19  H   LIG d   1     -12.199  82.525 117.688  0.00  0.00    -0.090 HD
ATOM     20  H   LIG d   1     -11.082  83.703 117.623  0.00  0.00    -0.090 HD
ATOM     21  H   LIG d   1     -12.143  83.652 118.870  0.00  0.00    -0.090 HD
ENDBRANCH   5  18
BRANCH   3  22
ATOM     22  C   LIG d   1      -9.580  78.772 118.561  0.00  0.00     0.382 C 
ATOM     23  O   LIG d   1      -8.584  78.094 118.213  0.00  0.00    -0.241 OA
ATOM     24  O   LIG d   1     -10.686  78.215 118.694  0.00  0.00    -0.241 OA
ENDBRANCH   3  22
TORSDOF 7
ENDMDL
MODEL 9
REMARK VINA RESULT:      -4.7     32.087     33.502
REMARK  7 active torsions:
REMARK  status: ('A' for Active; 'I' for Inactive)
REMARK    1  A    between atoms: C_2  and  C_3 
REMARK    2  A    between atoms: C_3  and  O_6 
REMARK    3  A    between atoms: C_3  and  C_4 
REMARK    4  A    between atoms: C_7  and  O_6 
REMARK    5  A    between atoms: C_9  and  C_10 
REMARK    6  A    between atoms: N_15  and  C_14 
REMARK    7  A    between atoms: N_20  and  C_19 
REMARK       I    between atoms: C_22  and  N_20 
ROOT
ATOM      1  C   LIG d   1      -4.333  93.701 118.473  0.00  0.00     0.161 C 
ATOM      2  C   LIG d   1      -5.411  94.599 118.395  0.00  0.00     0.016 C 
ATOM      3  C   LIG d   1      -6.594  94.334 117.667  0.00  0.00     0.038 C 
ATOM      4  C   LIG d   1      -6.843  93.080 117.089  0.00  0.00     0.028 C 
ATOM      5  C   LIG d   1      -5.573  92.323 116.715  0.00  0.00    -0.047 C 
ATOM      6  C   LIG d   1      -4.632  92.284 117.941  0.00  0.00     0.091 C 
ENDROOT
BRANCH   1   7
ATOM      7  O   LIG d   1      -3.850  93.635 119.829  0.00  0.00    -0.368 OA
BRANCH   7   8
ATOM      8  C   LIG d   1      -4.524  92.694 120.701  0.00  0.00     0.119 C 
BRANCH   8   9
ATOM      9  C   LIG d   1      -5.192  93.505 121.829  0.00  0.00     0.028 C 
ATOM     10  C   LIG d   1      -6.725  93.523 121.709  0.00  0.00     0.006 C 
ENDBRANCH   8   9
BRANCH   8  11
ATOM     11  C   LIG d   1      -3.524  91.771 121.404  0.00  0.00     0.028 C 
ATOM     12  C   LIG d   1      -2.063  92.096 121.052  0.00  0.00     0.006 C 
ENDBRANCH   8  11
ENDBRANCH   7   8
ENDBRANCH   1   7
BRANCH   6  13
ATOM     13  N   LIG d   1      -3.331  91.634 117.636  0.00  0.00    -0.311 N 
ATOM     14  C   LIG d   1      -3.072  90.354 117.899  0.00  0.00     0.210 C 
ATOM     15  C   LIG d   1      -1.661  89.890 117.524  0.00  0.00     0.109 C 
ATOM     16  O   LIG d   1      -3.886  89.551 118.378  0.00  0.00    -0.276 OA
ATOM     17  H   LIG d   1      -2.623  92.205 117.218  0.00  0.00     0.149 HD
ENDBRANCH   6  13
BRANCH   5  18
ATOM     18  N   LIG d   1      -5.975  90.981 116.252  0.00  0.00     0.381 N 
ATOM     19  H   LIG d   1      -5.495  90.282 116.782  0.00  0.00    -0.090 HD
ATOM     20  H   LIG d   1      -5.715  90.879 115.287  0.00  0.00    -0.090 HD
ATOM     21  H   LIG d   1      -6.960  90.866 116.352  0.00  0.00    -0.090 HD
ENDBRANCH   5  18
BRANCH   3  22
ATOM     22  C   LIG d   1      -7.526  95.343 117.479  0.00  0.00     0.382 C 
ATOM     23  O   LIG d   1      -8.675  95.064 117.061  0.00  0.00    -0.241 OA
ATOM     24  O   LIG d   1      -7.218  96.533 117.681  0.00  0.00    -0.241 OA
ENDBRANCH   3  22
TORSDOF 7
ENDMDL
