MODEL 1
REMARK VINA RESULT:      -5.6      0.000      0.000
REMARK  7 active torsions:
REMARK  status: ('A' for Active; 'I' for Inactive)
REMARK    1  A    between atoms: C_2  and  C_3 
REMARK    2  A    between atoms: C_3  and  O_6 
REMARK    3  A    between atoms: C_3  and  C_4 
REMARK    4  A    between atoms: C_7  and  O_6 
REMARK    5  A    between atoms: C_9  and  C_10 
REMARK    6  A    between atoms: N_15  and  C_14 
REMARK    7  A    between atoms: N_20  and  C_19 
REMARK       I    between atoms: C_22  and  N_20 
ROOT
ATOM      1  C   LIG d   1      -5.878  92.377 118.356  0.00  0.00     0.161 C 
ATOM      2  C   LIG d   1      -5.839  91.546 117.224  0.00  0.00     0.016 C 
ATOM      3  C   LIG d   1      -6.799  91.598 116.187  0.00  0.00     0.038 C 
ATOM      4  C   LIG d   1      -7.784  92.595 116.138  0.00  0.00     0.028 C 
ATOM      5  C   LIG d   1      -8.167  93.136 117.511  0.00  0.00    -0.047 C 
ATOM      6  C   LIG d   1      -6.882  93.546 118.266  0.00  0.00     0.091 C 
ENDROOT
BRANCH   1   7
ATOM      7  O   LIG d   1      -4.556  92.874 118.644  0.00  0.00    -0.368 OA
BRANCH   7   8
ATOM      8  C   LIG d   1      -3.463  92.202 117.971  0.00  0.00     0.119 C 
BRANCH   8   9
ATOM      9  C   LIG d   1      -2.789  91.272 118.998  0.00  0.00     0.028 C 
ATOM     10  C   LIG d   1      -2.933  89.786 118.629  0.00  0.00     0.006 C 
ENDBRANCH   8   9
BRANCH   8  11
ATOM     11  C   LIG d   1      -2.375  93.194 117.547  0.00  0.00     0.028 C 
ATOM     12  C   LIG d   1      -2.608  94.607 118.105  0.00  0.00     0.006 C 
ENDBRANCH   8  11
ENDBRANCH   7   8
ENDBRANCH   1   7
BRANCH   6  13
ATOM     13  N   LIG d   1      -7.160  94.008 119.650  0.00  0.00    -0.311 N 
ATOM     14  C   LIG d   1      -7.325  95.289 119.977  0.00  0.00     0.210 C 
ATOM     15  C   LIG d   1      -7.583  95.549 121.464  0.00  0.00     0.109 C 
ATOM     16  O   LIG d   1      -7.313  96.231 119.171  0.00  0.00    -0.276 OA
ATOM     17  H   LIG d   1      -7.218  93.306 120.362  0.00  0.00     0.149 HD
ENDBRANCH   6  13
BRANCH   5  18
ATOM     18  N   LIG d   1      -9.099  94.261 117.303  0.00  0.00     0.381 N 
ATOM     19  H   LIG d   1      -8.665  95.117 117.584  0.00  0.00    -0.090 HD
ATOM     20  H   LIG d   1      -9.914  94.118 117.874  0.00  0.00    -0.090 HD
ATOM     21  H   LIG d   1      -9.362  94.312 116.343  0.00  0.00    -0.090 HD
ENDBRANCH   5  18
BRANCH   3  22
ATOM     22  C   LIG d   1      -6.802  90.619 115.205  0.00  0.00     0.382 C 
ATOM     23  O   LIG d   1      -7.850  90.386 114.556  0.00  0.00    -0.241 OA
ATOM     24  O   LIG d   1      -5.782  89.937 114.989  0.00  0.00    -0.241 OA
ENDBRANCH   3  22
TORSDOF 7
ENDMDL
MODEL 2
REMARK VINA RESULT:      -5.1      1.746      2.114
REMARK  7 active torsions:
REMARK  status: ('A' for Active; 'I' for Inactive)
REMARK    1  A    between atoms: C_2  and  C_3 
REMARK    2  A    between atoms: C_3  and  O_6 
REMARK    3  A    between atoms: C_3  and  C_4 
REMARK    4  A    between atoms: C_7  and  O_6 
REMARK    5  A    between atoms: C_9  and  C_10 
REMARK    6  A    between atoms: N_15  and  C_14 
REMARK    7  A    between atoms: N_20  and  C_19 
REMARK       I    between atoms: C_22  and  N_20 
ROOT
ATOM      1  C   LIG d   1      -5.038  91.721 117.640  0.00  0.00     0.161 C 
ATOM      2  C   LIG d   1      -5.787  91.289 116.533  0.00  0.00     0.016 C 
ATOM      3  C   LIG d   1      -7.104  91.729 116.263  0.00  0.00     0.038 C 
ATOM      4  C   LIG d   1      -7.708  92.755 117.005  0.00  0.00     0.028 C 
ATOM      5  C   LIG d   1      -7.184  92.860 118.433  0.00  0.00    -0.047 C 
ATOM      6  C   LIG d   1      -5.640  92.923 118.397  0.00  0.00     0.091 C 
ENDROOT
BRANCH   1   7
ATOM      7  O   LIG d   1      -3.687  92.012 117.232  0.00  0.00    -0.368 OA
BRANCH   7   8
ATOM      8  C   LIG d   1      -2.667  91.100 117.709  0.00  0.00     0.119 C 
BRANCH   8   9
ATOM      9  C   LIG d   1      -3.378  89.983 118.497  0.00  0.00     0.028 C 
ATOM     10  C   LIG d   1      -2.417  89.212 119.418  0.00  0.00     0.006 C 
ENDBRANCH   8   9
BRANCH   8  11
ATOM     11  C   LIG d   1      -1.739  91.782 118.719  0.00  0.00     0.028 C 
ATOM     12  C   LIG d   1      -1.263  93.166 118.251  0.00  0.00     0.006 C 
ENDBRANCH   8  11
ENDBRANCH   7   8
ENDBRANCH   1   7
BRANCH   6  13
ATOM     13  N   LIG d   1      -5.042  92.942 119.758  0.00  0.00    -0.311 N 
ATOM     14  C   LIG d   1      -4.303  93.950 120.220  0.00  0.00     0.210 C 
ATOM     15  C   LIG d   1      -3.766  93.759 121.642  0.00  0.00     0.109 C 
ATOM     16  O   LIG d   1      -4.069  94.998 119.599  0.00  0.00    -0.276 OA
ATOM     17  H   LIG d   1      -5.208  92.145 120.340  0.00  0.00     0.149 HD
ENDBRANCH   6  13
BRANCH   5  18
ATOM     18  N   LIG d   1      -7.798  94.052 119.047  0.00  0.00     0.381 N 
ATOM     19  H   LIG d   1      -8.382  94.514 118.379  0.00  0.00    -0.090 HD
ATOM     20  H   LIG d   1      -7.069  94.688 119.322  0.00  0.00    -0.090 HD
ATOM     21  H   LIG d   1      -8.336  93.788 119.843  0.00  0.00    -0.090 HD
ENDBRANCH   5  18
BRANCH   3  22
ATOM     22  C   LIG d   1      -7.844  91.113 115.266  0.00  0.00     0.382 C 
ATOM     23  O   LIG d   1      -7.341  90.176 114.600  0.00  0.00    -0.241 OA
ATOM     24  O   LIG d   1      -8.992  91.512 114.994  0.00  0.00    -0.241 OA
ENDBRANCH   3  22
TORSDOF 7
ENDMDL
MODEL 3
REMARK VINA RESULT:      -4.8      2.189      3.578
REMARK  7 active torsions:
REMARK  status: ('A' for Active; 'I' for Inactive)
REMARK    1  A    between atoms: C_2  and  C_3 
REMARK    2  A    between atoms: C_3  and  O_6 
REMARK    3  A    between atoms: C_3  and  C_4 
REMARK    4  A    between atoms: C_7  and  O_6 
REMARK    5  A    between atoms: C_9  and  C_10 
REMARK    6  A    between atoms: N_15  and  C_14 
REMARK    7  A    between atoms: N_20  and  C_19 
REMARK       I    between atoms: C_22  and  N_20 
ROOT
ATOM      1  C   LIG d   1      -5.959  93.239 119.791  0.00  0.00     0.161 C 
ATOM      2  C   LIG d   1      -4.848  92.477 119.392  0.00  0.00     0.016 C 
ATOM      3  C   LIG d   1      -4.759  91.832 118.137  0.00  0.00     0.038 C 
ATOM      4  C   LIG d   1      -5.715  92.031 117.130  0.00  0.00     0.028 C 
ATOM      5  C   LIG d   1      -7.097  92.384 117.670  0.00  0.00    -0.047 C 
ATOM      6  C   LIG d   1      -6.963  93.560 118.665  0.00  0.00     0.091 C 
ENDROOT
BRANCH   1   7
ATOM      7  O   LIG d   1      -5.514  94.454 120.427  0.00  0.00    -0.368 OA
BRANCH   7   8
ATOM      8  C   LIG d   1      -5.173  95.549 119.541  0.00  0.00     0.119 C 
BRANCH   8   9
ATOM      9  C   LIG d   1      -3.672  95.846 119.729  0.00  0.00     0.028 C 
ATOM     10  C   LIG d   1      -2.847  95.514 118.475  0.00  0.00     0.006 C 
ENDBRANCH   8   9
BRANCH   8  11
ATOM     11  C   LIG d   1      -5.895  96.838 119.943  0.00  0.00     0.028 C 
ATOM     12  C   LIG d   1      -6.769  96.665 121.196  0.00  0.00     0.006 C 
ENDBRANCH   8  11
ENDBRANCH   7   8
ENDBRANCH   1   7
BRANCH   6  13
ATOM     13  N   LIG d   1      -8.258  93.913 119.303  0.00  0.00    -0.311 N 
ATOM     14  C   LIG d   1      -9.075  94.854 118.832  0.00  0.00     0.210 C 
ATOM     15  C   LIG d   1     -10.349  95.073 119.653  0.00  0.00     0.109 C 
ATOM     16  O   LIG d   1      -8.880  95.505 117.794  0.00  0.00    -0.276 OA
ATOM     17  H   LIG d   1      -8.509  93.412 120.133  0.00  0.00     0.149 HD
ENDBRANCH   6  13
BRANCH   5  18
ATOM     18  N   LIG d   1      -7.959  92.699 116.515  0.00  0.00     0.381 N 
ATOM     19  H   LIG d   1      -7.658  92.180 115.715  0.00  0.00    -0.090 HD
ATOM     20  H   LIG d   1      -7.876  93.679 116.305  0.00  0.00    -0.090 HD
ATOM     21  H   LIG d   1      -8.907  92.477 116.726  0.00  0.00    -0.090 HD
ENDBRANCH   5  18
BRANCH   3  22
ATOM     22  C   LIG d   1      -3.722  90.944 117.893  0.00  0.00     0.382 C 
ATOM     23  O   LIG d   1      -3.856  89.730 118.178  0.00  0.00    -0.241 OA
ATOM     24  O   LIG d   1      -2.638  91.350 117.433  0.00  0.00    -0.241 OA
ENDBRANCH   3  22
TORSDOF 7
ENDMDL
MODEL 4
REMARK VINA RESULT:      -4.8      2.373      4.571
REMARK  7 active torsions:
REMARK  status: ('A' for Active; 'I' for Inactive)
REMARK    1  A    between atoms: C_2  and  C_3 
REMARK    2  A    between atoms: C_3  and  O_6 
REMARK    3  A    between atoms: C_3  and  C_4 
REMARK    4  A    between atoms: C_7  and  O_6 
REMARK    5  A    between atoms: C_9  and  C_10 
REMARK    6  A    between atoms: N_15  and  C_14 
REMARK    7  A    between atoms: N_20  and  C_19 
REMARK       I    between atoms: C_22  and  N_20 
ROOT
ATOM      1  C   LIG d   1      -5.574  93.267 119.030  0.00  0.00     0.161 C 
ATOM      2  C   LIG d   1      -6.600  92.730 118.235  0.00  0.00     0.016 C 
ATOM      3  C   LIG d   1      -6.368  91.825 117.173  0.00  0.00     0.038 C 
ATOM      4  C   LIG d   1      -5.101  91.276 116.930  0.00  0.00     0.028 C 
ATOM      5  C   LIG d   1      -3.954  92.174 117.383  0.00  0.00    -0.047 C 
ATOM      6  C   LIG d   1      -4.197  92.594 118.851  0.00  0.00     0.091 C 
ENDROOT
BRANCH   1   7
ATOM      7  O   LIG d   1      -5.967  93.243 120.416  0.00  0.00    -0.368 OA
BRANCH   7   8
ATOM      8  C   LIG d   1      -6.167  94.533 121.045  0.00  0.00     0.119 C 
BRANCH   8   9
ATOM      9  C   LIG d   1      -7.672  94.673 121.345  0.00  0.00     0.028 C 
ATOM     10  C   LIG d   1      -8.423  95.434 120.240  0.00  0.00     0.006 C 
ENDBRANCH   8   9
BRANCH   8  11
ATOM     11  C   LIG d   1      -5.838  95.679 120.083  0.00  0.00     0.028 C 
ATOM     12  C   LIG d   1      -4.684  96.563 120.582  0.00  0.00     0.006 C 
ENDBRANCH   8  11
ENDBRANCH   7   8
ENDBRANCH   1   7
BRANCH   6  13
ATOM     13  N   LIG d   1      -3.165  93.542 119.347  0.00  0.00    -0.311 N 
ATOM     14  C   LIG d   1      -2.076  93.159 120.010  0.00  0.00     0.210 C 
ATOM     15  C   LIG d   1      -1.151  94.299 120.449  0.00  0.00     0.109 C 
ATOM     16  O   LIG d   1      -1.771  91.981 120.249  0.00  0.00    -0.276 OA
ATOM     17  H   LIG d   1      -3.317  94.516 119.169  0.00  0.00     0.149 HD
ENDBRANCH   6  13
BRANCH   5  18
ATOM     18  N   LIG d   1      -2.699  91.422 117.197  0.00  0.00     0.381 N 
ATOM     19  H   LIG d   1      -2.090  91.581 117.975  0.00  0.00    -0.090 HD
ATOM     20  H   LIG d   1      -2.242  91.754 116.366  0.00  0.00    -0.090 HD
ATOM     21  H   LIG d   1      -2.894  90.449 117.111  0.00  0.00    -0.090 HD
ENDBRANCH   5  18
BRANCH   3  22
ATOM     22  C   LIG d   1      -7.406  91.492 116.316  0.00  0.00     0.382 C 
ATOM     23  O   LIG d   1      -8.305  92.330 116.063  0.00  0.00    -0.241 OA
ATOM     24  O   LIG d   1      -7.479  90.349 115.826  0.00  0.00    -0.241 OA
ENDBRANCH   3  22
TORSDOF 7
ENDMDL
MODEL 5
REMARK VINA RESULT:      -4.8     12.042     14.608
REMARK  7 active torsions:
REMARK  status: ('A' for Active; 'I' for Inactive)
REMARK    1  A    between atoms: C_2  and  C_3 
REMARK    2  A    between atoms: C_3  and  O_6 
REMARK    3  A    between atoms: C_3  and  C_4 
REMARK    4  A    between atoms: C_7  and  O_6 
REMARK    5  A    between atoms: C_9  and  C_10 
REMARK    6  A    between atoms: N_15  and  C_14 
REMARK    7  A    between atoms: N_20  and  C_19 
REMARK       I    between atoms: C_22  and  N_20 
ROOT
ATOM      1  C   LIG d   1      -5.727  78.743 117.034  0.00  0.00     0.161 C 
ATOM      2  C   LIG d   1      -7.088  79.002 117.264  0.00  0.00     0.016 C 
ATOM      3  C   LIG d   1      -7.558  80.160 117.926  0.00  0.00     0.038 C 
ATOM      4  C   LIG d   1      -6.702  81.216 118.271  0.00  0.00     0.028 C 
ATOM      5  C   LIG d   1      -5.263  80.775 118.512  0.00  0.00    -0.047 C 
ATOM      6  C   LIG d   1      -4.786  79.936 117.304  0.00  0.00     0.091 C 
ENDROOT
BRANCH   1   7
ATOM      7  O   LIG d   1      -5.543  78.254 115.691  0.00  0.00    -0.368 OA
BRANCH   7   8
ATOM      8  C   LIG d   1      -5.020  76.908 115.568  0.00  0.00     0.119 C 
BRANCH   8   9
ATOM      9  C   LIG d   1      -3.842  76.957 114.576  0.00  0.00     0.028 C 
ATOM     10  C   LIG d   1      -2.605  76.205 115.096  0.00  0.00     0.006 C 
ENDBRANCH   8   9
BRANCH   8  11
ATOM     11  C   LIG d   1      -6.048  75.967 114.932  0.00  0.00     0.028 C 
ATOM     12  C   LIG d   1      -5.845  74.499 115.339  0.00  0.00     0.006 C 
ENDBRANCH   8  11
ENDBRANCH   7   8
ENDBRANCH   1   7
BRANCH   6  13
ATOM     13  N   LIG d   1      -3.416  79.393 117.496  0.00  0.00    -0.311 N 
ATOM     14  C   LIG d   1      -2.404  79.649 116.669  0.00  0.00     0.210 C 
ATOM     15  C   LIG d   1      -1.079  78.974 117.040  0.00  0.00     0.109 C 
ATOM     16  O   LIG d   1      -2.469  80.396 115.682  0.00  0.00    -0.276 OA
ATOM     17  H   LIG d   1      -3.266  78.802 118.291  0.00  0.00     0.149 HD
ENDBRANCH   6  13
BRANCH   5  18
ATOM     18  N   LIG d   1      -4.454  81.990 118.726  0.00  0.00     0.381 N 
ATOM     19  H   LIG d   1      -3.651  81.972 118.130  0.00  0.00    -0.090 HD
ATOM     20  H   LIG d   1      -4.138  82.006 119.680  0.00  0.00    -0.090 HD
ATOM     21  H   LIG d   1      -5.000  82.801 118.537  0.00  0.00    -0.090 HD
ENDBRANCH   5  18
BRANCH   3  22
ATOM     22  C   LIG d   1      -8.895  80.251 118.285  0.00  0.00     0.382 C 
ATOM     23  O   LIG d   1      -9.397  81.369 118.552  0.00  0.00    -0.241 OA
ATOM     24  O   LIG d   1      -9.593  79.225 118.388  0.00  0.00    -0.241 OA
ENDBRANCH   3  22
TORSDOF 7
ENDMDL
MODEL 6
REMARK VINA RESULT:      -4.7      2.145      4.087
REMARK  7 active torsions:
REMARK  status: ('A' for Active; 'I' for Inactive)
REMARK    1  A    between atoms: C_2  and  C_3 
REMARK    2  A    between atoms: C_3  and  O_6 
REMARK    3  A    between atoms: C_3  and  C_4 
REMARK    4  A    between atoms: C_7  and  O_6 
REMARK    5  A    between atoms: C_9  and  C_10 
REMARK    6  A    between atoms: N_15  and  C_14 
REMARK    7  A    between atoms: N_20  and  C_19 
REMARK       I    between atoms: C_22  and  N_20 
ROOT
ATOM      1  C   LIG d   1      -6.238  93.350 119.217  0.00  0.00     0.161 C 
ATOM      2  C   LIG d   1      -5.049  92.676 118.893  0.00  0.00     0.016 C 
ATOM      3  C   LIG d   1      -4.912  91.839 117.762  0.00  0.00     0.038 C 
ATOM      4  C   LIG d   1      -5.918  91.738 116.789  0.00  0.00     0.028 C 
ATOM      5  C   LIG d   1      -7.317  92.002 117.334  0.00  0.00    -0.047 C 
ATOM      6  C   LIG d   1      -7.310  93.340 118.108  0.00  0.00     0.091 C 
ENDROOT
BRANCH   1   7
ATOM      7  O   LIG d   1      -5.940  94.703 119.614  0.00  0.00    -0.368 OA
BRANCH   7   8
ATOM      8  C   LIG d   1      -6.229  95.041 120.993  0.00  0.00     0.119 C 
BRANCH   8   9
ATOM      9  C   LIG d   1      -6.556  96.546 121.043  0.00  0.00     0.028 C 
ATOM     10  C   LIG d   1      -7.951  96.824 121.627  0.00  0.00     0.006 C 
ENDBRANCH   8   9
BRANCH   8  11
ATOM     11  C   LIG d   1      -4.992  94.866 121.880  0.00  0.00     0.028 C 
ATOM     12  C   LIG d   1      -5.182  93.791 122.962  0.00  0.00     0.006 C 
ENDBRANCH   8  11
ENDBRANCH   7   8
ENDBRANCH   1   7
BRANCH   6  13
ATOM     13  N   LIG d   1      -8.620  93.633 118.745  0.00  0.00    -0.311 N 
ATOM     14  C   LIG d   1      -9.199  94.833 118.714  0.00  0.00     0.210 C 
ATOM     15  C   LIG d   1     -10.539  94.923 119.451  0.00  0.00     0.109 C 
ATOM     16  O   LIG d   1      -8.746  95.821 118.118  0.00  0.00    -0.276 OA
ATOM     17  H   LIG d   1      -9.073  92.880 119.224  0.00  0.00     0.149 HD
ENDBRANCH   6  13
BRANCH   5  18
ATOM     18  N   LIG d   1      -8.249  92.001 116.190  0.00  0.00     0.381 N 
ATOM     19  H   LIG d   1      -8.013  92.741 115.560  0.00  0.00    -0.090 HD
ATOM     20  H   LIG d   1      -9.181  92.161 116.529  0.00  0.00    -0.090 HD
ATOM     21  H   LIG d   1      -8.205  91.125 115.716  0.00  0.00    -0.090 HD
ENDBRANCH   5  18
BRANCH   3  22
ATOM     22  C   LIG d   1      -3.774  91.060 117.617  0.00  0.00     0.382 C 
ATOM     23  O   LIG d   1      -2.677  91.600 117.337  0.00  0.00    -0.241 OA
ATOM     24  O   LIG d   1      -3.840  89.821 117.717  0.00  0.00    -0.241 OA
ENDBRANCH   3  22
TORSDOF 7
ENDMDL
MODEL 7
REMARK VINA RESULT:      -4.7      1.515      2.227
REMARK  7 active torsions:
REMARK  status: ('A' for Active; 'I' for Inactive)
REMARK    1  A    between atoms: C_2  and  C_3 
REMARK    2  A    between atoms: C_3  and  O_6 
REMARK    3  A    between atoms: C_3  and  C_4 
REMARK    4  A    between atoms: C_7  and  O_6 
REMARK    5  A    between atoms: C_9  and  C_10 
REMARK    6  A    between atoms: N_15  and  C_14 
REMARK    7  A    between atoms: N_20  and  C_19 
REMARK       I    between atoms: C_22  and  N_20 
ROOT
ATOM      1  C   LIG d   1      -6.103  93.064 118.917  0.00  0.00     0.161 C 
ATOM      2  C   LIG d   1      -5.956  92.088 117.917  0.00  0.00     0.016 C 
ATOM      3  C   LIG d   1      -6.844  91.953 116.825  0.00  0.00     0.038 C 
ATOM      4  C   LIG d   1      -7.860  92.887 116.576  0.00  0.00     0.028 C 
ATOM      5  C   LIG d   1      -8.356  93.592 117.833  0.00  0.00    -0.047 C 
ATOM      6  C   LIG d   1      -7.142  94.161 118.602  0.00  0.00     0.091 C 
ENDROOT
BRANCH   1   7
ATOM      7  O   LIG d   1      -4.824  93.656 119.215  0.00  0.00    -0.368 OA
BRANCH   7   8
ATOM      8  C   LIG d   1      -4.370  93.539 120.586  0.00  0.00     0.119 C 
BRANCH   8   9
ATOM      9  C   LIG d   1      -2.958  92.923 120.556  0.00  0.00     0.028 C 
ATOM     10  C   LIG d   1      -2.421  92.755 119.124  0.00  0.00     0.006 C 
ENDBRANCH   8   9
BRANCH   8  11
ATOM     11  C   LIG d   1      -5.230  92.546 121.374  0.00  0.00     0.028 C 
ATOM     12  C   LIG d   1      -5.835  93.161 122.646  0.00  0.00     0.006 C 
ENDBRANCH   8  11
ENDBRANCH   7   8
ENDBRANCH   1   7
BRANCH   6  13
ATOM     13  N   LIG d   1      -7.531  94.794 119.889  0.00  0.00    -0.311 N 
ATOM     14  C   LIG d   1      -7.171  96.028 120.237  0.00  0.00     0.210 C 
ATOM     15  C   LIG d   1      -7.663  96.480 121.616  0.00  0.00     0.109 C 
ATOM     16  O   LIG d   1      -6.519  96.803 119.522  0.00  0.00    -0.276 OA
ATOM     17  H   LIG d   1      -8.088  94.247 120.517  0.00  0.00     0.149 HD
ENDBRANCH   6  13
BRANCH   5  18
ATOM     18  N   LIG d   1      -9.313  94.633 117.413  0.00  0.00     0.381 N 
ATOM     19  H   LIG d   1      -9.272  95.406 118.046  0.00  0.00    -0.090 HD
ATOM     20  H   LIG d   1     -10.242  94.251 117.441  0.00  0.00    -0.090 HD
ATOM     21  H   LIG d   1      -9.100  94.939 116.489  0.00  0.00    -0.090 HD
ENDBRANCH   5  18
BRANCH   3  22
ATOM     22  C   LIG d   1      -6.743  90.850 115.990  0.00  0.00     0.382 C 
ATOM     23  O   LIG d   1      -5.634  90.540 115.492  0.00  0.00    -0.241 OA
ATOM     24  O   LIG d   1      -7.755  90.188 115.693  0.00  0.00    -0.241 OA
ENDBRANCH   3  22
TORSDOF 7
ENDMDL
MODEL 8
REMARK VINA RESULT:      -4.6      4.665      7.317
REMARK  7 active torsions:
REMARK  status: ('A' for Active; 'I' for Inactive)
REMARK    1  A    between atoms: C_2  and  C_3 
REMARK    2  A    between atoms: C_3  and  O_6 
REMARK    3  A    between atoms: C_3  and  C_4 
REMARK    4  A    between atoms: C_7  and  O_6 
REMARK    5  A    between atoms: C_9  and  C_10 
REMARK    6  A    between atoms: N_15  and  C_14 
REMARK    7  A    between atoms: N_20  and  C_19 
REMARK       I    between atoms: C_22  and  N_20 
ROOT
ATOM      1  C   LIG d   1      -0.249  89.955 117.317  0.00  0.00     0.161 C 
ATOM      2  C   LIG d   1       1.154  90.026 117.291  0.00  0.00     0.016 C 
ATOM      3  C   LIG d   1       1.869  91.243 117.210  0.00  0.00     0.038 C 
ATOM      4  C   LIG d   1       1.228  92.488 117.304  0.00  0.00     0.028 C 
ATOM      5  C   LIG d   1      -0.219  92.461 116.823  0.00  0.00    -0.047 C 
ATOM      6  C   LIG d   1      -0.962  91.306 117.532  0.00  0.00     0.091 C 
ENDROOT
BRANCH   1   7
ATOM      7  O   LIG d   1      -0.671  89.002 118.313  0.00  0.00    -0.368 OA
BRANCH   7   8
ATOM      8  C   LIG d   1      -0.411  89.364 119.692  0.00  0.00     0.119 C 
BRANCH   8   9
ATOM      9  C   LIG d   1       0.410  88.223 120.323  0.00  0.00     0.028 C 
ATOM     10  C   LIG d   1       0.376  86.938 119.478  0.00  0.00     0.006 C 
ENDBRANCH   8   9
BRANCH   8  11
ATOM     11  C   LIG d   1      -1.708  89.428 120.504  0.00  0.00     0.028 C 
ATOM     12  C   LIG d   1      -2.889  88.746 119.797  0.00  0.00     0.006 C 
ENDBRANCH   8  11
ENDBRANCH   7   8
ENDBRANCH   1   7
BRANCH   6  13
ATOM     13  N   LIG d   1      -2.362  91.157 117.056  0.00  0.00    -0.311 N 
ATOM     14  C   LIG d   1      -3.408  91.706 117.671  0.00  0.00     0.210 C 
ATOM     15  C   LIG d   1      -4.766  91.411 117.026  0.00  0.00     0.109 C 
ATOM     16  O   LIG d   1      -3.337  92.436 118.671  0.00  0.00    -0.276 OA
ATOM     17  H   LIG d   1      -2.508  90.606 116.233  0.00  0.00     0.149 HD
ENDBRANCH   6  13
BRANCH   5  18
ATOM     18  N   LIG d   1      -0.806  93.785 117.104  0.00  0.00     0.381 N 
ATOM     19  H   LIG d   1      -0.100  94.491 117.033  0.00  0.00    -0.090 HD
ATOM     20  H   LIG d   1      -1.163  93.790 118.043  0.00  0.00    -0.090 HD
ATOM     21  H   LIG d   1      -1.542  93.975 116.460  0.00  0.00    -0.090 HD
ENDBRANCH   5  18
BRANCH   3  22
ATOM     22  C   LIG d   1       3.239  91.222 116.995  0.00  0.00     0.382 C 
ATOM     23  O   LIG d   1       3.855  90.129 116.981  0.00  0.00    -0.241 OA
ATOM     24  O   LIG d   1       3.873  92.285 116.857  0.00  0.00    -0.241 OA
ENDBRANCH   3  22
TORSDOF 7
ENDMDL
MODEL 9
REMARK VINA RESULT:      -4.6      2.693      4.867
REMARK  7 active torsions:
REMARK  status: ('A' for Active; 'I' for Inactive)
REMARK    1  A    between atoms: C_2  and  C_3 
REMARK    2  A    between atoms: C_3  and  O_6 
REMARK    3  A    between atoms: C_3  and  C_4 
REMARK    4  A    between atoms: C_7  and  O_6 
REMARK    5  A    between atoms: C_9  and  C_10 
REMARK    6  A    between atoms: N_15  and  C_14 
REMARK    7  A    between atoms: N_20  and  C_19 
REMARK       I    between atoms: C_22  and  N_20 
ROOT
ATOM      1  C   LIG d   1      -5.315  93.125 119.356  0.00  0.00     0.161 C 
ATOM      2  C   LIG d   1      -6.402  92.715 118.565  0.00  0.00     0.016 C 
ATOM      3  C   LIG d   1      -6.261  91.954 117.382  0.00  0.00     0.038 C 
ATOM      4  C   LIG d   1      -5.025  91.419 116.988  0.00  0.00     0.028 C 
ATOM      5  C   LIG d   1      -3.830  92.228 117.480  0.00  0.00    -0.047 C 
ATOM      6  C   LIG d   1      -3.970  92.456 119.002  0.00  0.00     0.091 C 
ENDROOT
BRANCH   1   7
ATOM      7  O   LIG d   1      -5.622  92.926 120.750  0.00  0.00    -0.368 OA
BRANCH   7   8
ATOM      8  C   LIG d   1      -6.352  93.995 121.401  0.00  0.00     0.119 C 
BRANCH   8   9
ATOM      9  C   LIG d   1      -5.439  95.236 121.415  0.00  0.00     0.028 C 
ATOM     10  C   LIG d   1      -4.261  95.087 122.393  0.00  0.00     0.006 C 
ENDBRANCH   8   9
BRANCH   8  11
ATOM     11  C   LIG d   1      -6.619  93.671 122.874  0.00  0.00     0.028 C 
ATOM     12  C   LIG d   1      -6.502  92.171 123.184  0.00  0.00     0.006 C 
ENDBRANCH   8  11
ENDBRANCH   7   8
ENDBRANCH   1   7
BRANCH   6  13
ATOM     13  N   LIG d   1      -2.885  93.312 119.549  0.00  0.00    -0.311 N 
ATOM     14  C   LIG d   1      -1.771  92.825 120.093  0.00  0.00     0.210 C 
ATOM     15  C   LIG d   1      -0.791  93.881 120.614  0.00  0.00     0.109 C 
ATOM     16  O   LIG d   1      -1.487  91.620 120.164  0.00  0.00    -0.276 OA
ATOM     17  H   LIG d   1      -3.019  94.303 119.504  0.00  0.00     0.149 HD
ENDBRANCH   6  13
BRANCH   5  18
ATOM     18  N   LIG d   1      -2.609  91.485 117.116  0.00  0.00     0.381 N 
ATOM     19  H   LIG d   1      -1.819  91.882 117.584  0.00  0.00    -0.090 HD
ATOM     20  H   LIG d   1      -2.462  91.565 116.126  0.00  0.00    -0.090 HD
ATOM     21  H   LIG d   1      -2.706  90.526 117.369  0.00  0.00    -0.090 HD
ENDBRANCH   5  18
BRANCH   3  22
ATOM     22  C   LIG d   1      -7.358  91.755 116.558  0.00  0.00     0.382 C 
ATOM     23  O   LIG d   1      -7.545  90.636 116.023  0.00  0.00    -0.241 OA
ATOM     24  O   LIG d   1      -8.138  92.693 116.308  0.00  0.00    -0.241 OA
ENDBRANCH   3  22
TORSDOF 7
ENDMDL
