MODEL 1
REMARK VINA RESULT:      -5.6      0.000      0.000
REMARK  7 active torsions:
REMARK  status: ('A' for Active; 'I' for Inactive)
REMARK    1  A    between atoms: C_2  and  C_3 
REMARK    2  A    between atoms: C_3  and  O_6 
REMARK    3  A    between atoms: C_3  and  C_4 
REMARK    4  A    between atoms: C_7  and  O_6 
REMARK    5  A    between atoms: C_9  and  C_10 
REMARK    6  A    between atoms: N_15  and  C_14 
REMARK    7  A    between atoms: N_20  and  C_19 
REMARK       I    between atoms: C_22  and  N_20 
ROOT
ATOM      1  C   LIG d   1      -0.095  60.240 118.505  0.00  0.00     0.161 C 
ATOM      2  C   LIG d   1       1.159  59.970 117.932  0.00  0.00     0.016 C 
ATOM      3  C   LIG d   1       2.261  59.477 118.668  0.00  0.00     0.038 C 
ATOM      4  C   LIG d   1       2.139  59.076 120.007  0.00  0.00     0.028 C 
ATOM      5  C   LIG d   1       1.029  59.803 120.758  0.00  0.00    -0.047 C 
ATOM      6  C   LIG d   1      -0.279  59.704 119.940  0.00  0.00     0.091 C 
ENDROOT
BRANCH   1   7
ATOM      7  O   LIG d   1      -1.142  59.745 117.647  0.00  0.00    -0.368 OA
BRANCH   7   8
ATOM      8  C   LIG d   1      -1.533  58.365 117.850  0.00  0.00     0.119 C 
BRANCH   8   9
ATOM      9  C   LIG d   1      -1.147  57.583 116.580  0.00  0.00     0.028 C 
ATOM     10  C   LIG d   1      -0.012  56.576 116.833  0.00  0.00     0.006 C 
ENDBRANCH   8   9
BRANCH   8  11
ATOM     11  C   LIG d   1      -3.054  58.228 117.964  0.00  0.00     0.028 C 
ATOM     12  C   LIG d   1      -3.780  59.581 117.910  0.00  0.00     0.006 C 
ENDBRANCH   8  11
ENDBRANCH   7   8
ENDBRANCH   1   7
BRANCH   6  13
ATOM     13  N   LIG d   1      -1.396  60.461 120.563  0.00  0.00    -0.311 N 
ATOM     14  C   LIG d   1      -2.331  59.895 121.324  0.00  0.00     0.210 C 
ATOM     15  C   LIG d   1      -3.404  60.854 121.851  0.00  0.00     0.109 C 
ATOM     16  O   LIG d   1      -2.357  58.696 121.638  0.00  0.00    -0.276 OA
ATOM     17  H   LIG d   1      -1.434  61.446 120.386  0.00  0.00     0.149 HD
ENDBRANCH   6  13
BRANCH   5  18
ATOM     18  N   LIG d   1       0.922  59.192 122.096  0.00  0.00     0.381 N 
ATOM     19  H   LIG d   1       0.978  58.196 122.019  0.00  0.00    -0.090 HD
ATOM     20  H   LIG d   1       0.028  59.428 122.491  0.00  0.00    -0.090 HD
ATOM     21  H   LIG d   1       1.652  59.529 122.684  0.00  0.00    -0.090 HD
ENDBRANCH   5  18
BRANCH   3  22
ATOM     22  C   LIG d   1       3.513  59.419 118.075  0.00  0.00     0.382 C 
ATOM     23  O   LIG d   1       4.384  58.637 118.525  0.00  0.00    -0.241 OA
ATOM     24  O   LIG d   1       3.796  60.170 117.123  0.00  0.00    -0.241 OA
ENDBRANCH   3  22
TORSDOF 7
ENDMDL
MODEL 2
REMARK VINA RESULT:      -5.3     32.565     34.218
REMARK  7 active torsions:
REMARK  status: ('A' for Active; 'I' for Inactive)
REMARK    1  A    between atoms: C_2  and  C_3 
REMARK    2  A    between atoms: C_3  and  O_6 
REMARK    3  A    between atoms: C_3  and  C_4 
REMARK    4  A    between atoms: C_7  and  O_6 
REMARK    5  A    between atoms: C_9  and  C_10 
REMARK    6  A    between atoms: N_15  and  C_14 
REMARK    7  A    between atoms: N_20  and  C_19 
REMARK       I    between atoms: C_22  and  N_20 
ROOT
ATOM      1  C   LIG d   1      -5.287  92.243 117.979  0.00  0.00     0.161 C 
ATOM      2  C   LIG d   1      -5.468  91.213 117.041  0.00  0.00     0.016 C 
ATOM      3  C   LIG d   1      -6.608  91.109 116.211  0.00  0.00     0.038 C 
ATOM      4  C   LIG d   1      -7.581  92.118 116.157  0.00  0.00     0.028 C 
ATOM      5  C   LIG d   1      -7.692  92.922 117.448  0.00  0.00    -0.047 C 
ATOM      6  C   LIG d   1      -6.284  93.413 117.856  0.00  0.00     0.091 C 
ENDROOT
BRANCH   1   7
ATOM      7  O   LIG d   1      -3.932  92.730 117.914  0.00  0.00    -0.368 OA
BRANCH   7   8
ATOM      8  C   LIG d   1      -3.091  92.429 119.055  0.00  0.00     0.119 C 
BRANCH   8   9
ATOM      9  C   LIG d   1      -2.649  93.771 119.671  0.00  0.00     0.028 C 
ATOM     10  C   LIG d   1      -2.586  94.902 118.630  0.00  0.00     0.006 C 
ENDBRANCH   8   9
BRANCH   8  11
ATOM     11  C   LIG d   1      -1.796  91.735 118.625  0.00  0.00     0.028 C 
ATOM     12  C   LIG d   1      -2.013  90.268 118.219  0.00  0.00     0.006 C 
ENDBRANCH   8  11
ENDBRANCH   7   8
ENDBRANCH   1   7
BRANCH   6  13
ATOM     13  N   LIG d   1      -6.291  94.137 119.154  0.00  0.00    -0.311 N 
ATOM     14  C   LIG d   1      -6.529  95.443 119.264  0.00  0.00     0.210 C 
ATOM     15  C   LIG d   1      -6.469  95.993 120.693  0.00  0.00     0.109 C 
ATOM     16  O   LIG d   1      -6.816  96.192 118.318  0.00  0.00    -0.276 OA
ATOM     17  H   LIG d   1      -6.098  93.600 119.977  0.00  0.00     0.149 HD
ENDBRANCH   6  13
BRANCH   5  18
ATOM     18  N   LIG d   1      -8.642  94.025 117.206  0.00  0.00     0.381 N 
ATOM     19  H   LIG d   1      -8.677  94.233 116.228  0.00  0.00    -0.090 HD
ATOM     20  H   LIG d   1      -8.320  94.843 117.691  0.00  0.00    -0.090 HD
ATOM     21  H   LIG d   1      -9.548  93.771 117.532  0.00  0.00    -0.090 HD
ENDBRANCH   5  18
BRANCH   3  22
ATOM     22  C   LIG d   1      -6.803  89.965 115.452  0.00  0.00     0.382 C 
ATOM     23  O   LIG d   1      -7.951  89.469 115.349  0.00  0.00    -0.241 OA
ATOM     24  O   LIG d   1      -5.838  89.397 114.905  0.00  0.00    -0.241 OA
ENDBRANCH   3  22
TORSDOF 7
ENDMDL
MODEL 3
REMARK VINA RESULT:      -5.2      2.273      5.758
REMARK  7 active torsions:
REMARK  status: ('A' for Active; 'I' for Inactive)
REMARK    1  A    between atoms: C_2  and  C_3 
REMARK    2  A    between atoms: C_3  and  O_6 
REMARK    3  A    between atoms: C_3  and  C_4 
REMARK    4  A    between atoms: C_7  and  O_6 
REMARK    5  A    between atoms: C_9  and  C_10 
REMARK    6  A    between atoms: N_15  and  C_14 
REMARK    7  A    between atoms: N_20  and  C_19 
REMARK       I    between atoms: C_22  and  N_20 
ROOT
ATOM      1  C   LIG d   1      -0.264  60.329 118.758  0.00  0.00     0.161 C 
ATOM      2  C   LIG d   1      -1.597  59.900 118.869  0.00  0.00     0.016 C 
ATOM      3  C   LIG d   1      -2.003  58.561 118.665  0.00  0.00     0.038 C 
ATOM      4  C   LIG d   1      -1.075  57.525 118.482  0.00  0.00     0.028 C 
ATOM      5  C   LIG d   1       0.238  57.990 117.862  0.00  0.00    -0.047 C 
ATOM      6  C   LIG d   1       0.776  59.193 118.669  0.00  0.00     0.091 C 
ENDROOT
BRANCH   1   7
ATOM      7  O   LIG d   1       0.056  61.217 119.848  0.00  0.00    -0.368 OA
BRANCH   7   8
ATOM      8  C   LIG d   1       0.109  60.616 121.165  0.00  0.00     0.119 C 
BRANCH   8   9
ATOM      9  C   LIG d   1      -0.872  61.389 122.067  0.00  0.00     0.028 C 
ATOM     10  C   LIG d   1      -2.086  60.539 122.477  0.00  0.00     0.006 C 
ENDBRANCH   8   9
BRANCH   8  11
ATOM     11  C   LIG d   1       1.486  60.805 121.808  0.00  0.00     0.028 C 
ATOM     12  C   LIG d   1       1.528  61.986 122.791  0.00  0.00     0.006 C 
ENDBRANCH   8  11
ENDBRANCH   7   8
ENDBRANCH   1   7
BRANCH   6  13
ATOM     13  N   LIG d   1       2.015  59.764 118.079  0.00  0.00    -0.311 N 
ATOM     14  C   LIG d   1       3.240  59.429 118.481  0.00  0.00     0.210 C 
ATOM     15  C   LIG d   1       4.379  60.150 117.753  0.00  0.00     0.109 C 
ATOM     16  O   LIG d   1       3.492  58.580 119.349  0.00  0.00    -0.276 OA
ATOM     17  H   LIG d   1       1.904  60.437 117.347  0.00  0.00     0.149 HD
ENDBRANCH   6  13
BRANCH   5  18
ATOM     18  N   LIG d   1       1.161  56.839 117.855  0.00  0.00     0.381 N 
ATOM     19  H   LIG d   1       1.036  56.309 117.016  0.00  0.00    -0.090 HD
ATOM     20  H   LIG d   1       0.946  56.246 118.638  0.00  0.00    -0.090 HD
ATOM     21  H   LIG d   1       2.103  57.157 117.919  0.00  0.00    -0.090 HD
ENDBRANCH   5  18
BRANCH   3  22
ATOM     22  C   LIG d   1      -3.353  58.254 118.602  0.00  0.00     0.382 C 
ATOM     23  O   LIG d   1      -3.766  57.150 119.033  0.00  0.00    -0.241 OA
ATOM     24  O   LIG d   1      -4.158  59.048 118.079  0.00  0.00    -0.241 OA
ENDBRANCH   3  22
TORSDOF 7
ENDMDL
MODEL 4
REMARK VINA RESULT:      -5.2     31.533     33.178
REMARK  7 active torsions:
REMARK  status: ('A' for Active; 'I' for Inactive)
REMARK    1  A    between atoms: C_2  and  C_3 
REMARK    2  A    between atoms: C_3  and  O_6 
REMARK    3  A    between atoms: C_3  and  C_4 
REMARK    4  A    between atoms: C_7  and  O_6 
REMARK    5  A    between atoms: C_9  and  C_10 
REMARK    6  A    between atoms: N_15  and  C_14 
REMARK    7  A    between atoms: N_20  and  C_19 
REMARK       I    between atoms: C_22  and  N_20 
ROOT
ATOM      1  C   LIG d   1      -4.740  91.338 117.898  0.00  0.00     0.161 C 
ATOM      2  C   LIG d   1      -5.594  90.687 116.992  0.00  0.00     0.016 C 
ATOM      3  C   LIG d   1      -6.719  91.305 116.401  0.00  0.00     0.038 C 
ATOM      4  C   LIG d   1      -6.982  92.674 116.560  0.00  0.00     0.028 C 
ATOM      5  C   LIG d   1      -6.439  93.247 117.865  0.00  0.00    -0.047 C 
ATOM      6  C   LIG d   1      -4.947  92.864 117.998  0.00  0.00     0.091 C 
ENDROOT
BRANCH   1   7
ATOM      7  O   LIG d   1      -3.367  91.039 117.578  0.00  0.00    -0.368 OA
BRANCH   7   8
ATOM      8  C   LIG d   1      -2.815  89.849 118.192  0.00  0.00     0.119 C 
BRANCH   8   9
ATOM      9  C   LIG d   1      -3.194  89.880 119.686  0.00  0.00     0.028 C 
ATOM     10  C   LIG d   1      -2.922  88.539 120.388  0.00  0.00     0.006 C 
ENDBRANCH   8   9
BRANCH   8  11
ATOM     11  C   LIG d   1      -1.284  89.866 118.162  0.00  0.00     0.028 C 
ATOM     12  C   LIG d   1      -0.691  91.176 118.705  0.00  0.00     0.006 C 
ENDBRANCH   8  11
ENDBRANCH   7   8
ENDBRANCH   1   7
BRANCH   6  13
ATOM     13  N   LIG d   1      -4.359  93.314 119.287  0.00  0.00    -0.311 N 
ATOM     14  C   LIG d   1      -3.227  94.010 119.373  0.00  0.00     0.210 C 
ATOM     15  C   LIG d   1      -2.787  94.356 120.799  0.00  0.00     0.109 C 
ATOM     16  O   LIG d   1      -2.562  94.401 118.402  0.00  0.00    -0.276 OA
ATOM     17  H   LIG d   1      -4.851  93.067 120.123  0.00  0.00     0.149 HD
ENDBRANCH   6  13
BRANCH   5  18
ATOM     18  N   LIG d   1      -6.661  94.705 117.838  0.00  0.00     0.381 N 
ATOM     19  H   LIG d   1      -7.097  94.997 118.690  0.00  0.00    -0.090 HD
ATOM     20  H   LIG d   1      -7.278  94.926 117.076  0.00  0.00    -0.090 HD
ATOM     21  H   LIG d   1      -5.793  95.181 117.720  0.00  0.00    -0.090 HD
ENDBRANCH   5  18
BRANCH   3  22
ATOM     22  C   LIG d   1      -7.619  90.543 115.671  0.00  0.00     0.382 C 
ATOM     23  O   LIG d   1      -8.235  91.053 114.705  0.00  0.00    -0.241 OA
ATOM     24  O   LIG d   1      -7.855  89.363 115.995  0.00  0.00    -0.241 OA
ENDBRANCH   3  22
TORSDOF 7
ENDMDL
MODEL 5
REMARK VINA RESULT:      -5.0      0.812      2.014
REMARK  7 active torsions:
REMARK  status: ('A' for Active; 'I' for Inactive)
REMARK    1  A    between atoms: C_2  and  C_3 
REMARK    2  A    between atoms: C_3  and  O_6 
REMARK    3  A    between atoms: C_3  and  C_4 
REMARK    4  A    between atoms: C_7  and  O_6 
REMARK    5  A    between atoms: C_9  and  C_10 
REMARK    6  A    between atoms: N_15  and  C_14 
REMARK    7  A    between atoms: N_20  and  C_19 
REMARK       I    between atoms: C_22  and  N_20 
ROOT
ATOM      1  C   LIG d   1       0.299  59.644 119.028  0.00  0.00     0.161 C 
ATOM      2  C   LIG d   1       1.538  59.450 118.394  0.00  0.00     0.016 C 
ATOM      3  C   LIG d   1       2.781  59.622 119.046  0.00  0.00     0.038 C 
ATOM      4  C   LIG d   1       2.868  59.854 120.427  0.00  0.00     0.028 C 
ATOM      5  C   LIG d   1       1.642  60.555 121.002  0.00  0.00    -0.047 C 
ATOM      6  C   LIG d   1       0.374  59.788 120.562  0.00  0.00     0.091 C 
ENDROOT
BRANCH   1   7
ATOM      7  O   LIG d   1      -0.605  58.581 118.668  0.00  0.00    -0.368 OA
BRANCH   7   8
ATOM      8  C   LIG d   1      -1.585  58.896 117.649  0.00  0.00     0.119 C 
BRANCH   8   9
ATOM      9  C   LIG d   1      -2.976  58.568 118.227  0.00  0.00     0.028 C 
ATOM     10  C   LIG d   1      -3.979  59.717 118.030  0.00  0.00     0.006 C 
ENDBRANCH   8   9
BRANCH   8  11
ATOM     11  C   LIG d   1      -1.430  57.987 116.426  0.00  0.00     0.028 C 
ATOM     12  C   LIG d   1      -0.502  56.790 116.687  0.00  0.00     0.006 C 
ENDBRANCH   8  11
ENDBRANCH   7   8
ENDBRANCH   1   7
BRANCH   6  13
ATOM     13  N   LIG d   1      -0.876  60.456 121.012  0.00  0.00    -0.311 N 
ATOM     14  C   LIG d   1      -1.900  59.802 121.559  0.00  0.00     0.210 C 
ATOM     15  C   LIG d   1      -3.100  60.678 121.933  0.00  0.00     0.109 C 
ATOM     16  O   LIG d   1      -1.916  58.586 121.798  0.00  0.00    -0.276 OA
ATOM     17  H   LIG d   1      -0.935  61.447 120.884  0.00  0.00     0.149 HD
ENDBRANCH   6  13
BRANCH   5  18
ATOM     18  N   LIG d   1       1.806  60.609 122.467  0.00  0.00     0.381 N 
ATOM     19  H   LIG d   1       2.315  61.433 122.720  0.00  0.00    -0.090 HD
ATOM     20  H   LIG d   1       2.334  59.808 122.765  0.00  0.00    -0.090 HD
ATOM     21  H   LIG d   1       0.914  60.612 122.910  0.00  0.00    -0.090 HD
ENDBRANCH   5  18
BRANCH   3  22
ATOM     22  C   LIG d   1       3.954  59.601 118.307  0.00  0.00     0.382 C 
ATOM     23  O   LIG d   1       4.030  60.248 117.234  0.00  0.00    -0.241 OA
ATOM     24  O   LIG d   1       4.921  58.908 118.675  0.00  0.00    -0.241 OA
ENDBRANCH   3  22
TORSDOF 7
ENDMDL
MODEL 6
REMARK VINA RESULT:      -4.8      3.002      5.854
REMARK  7 active torsions:
REMARK  status: ('A' for Active; 'I' for Inactive)
REMARK    1  A    between atoms: C_2  and  C_3 
REMARK    2  A    between atoms: C_3  and  O_6 
REMARK    3  A    between atoms: C_3  and  C_4 
REMARK    4  A    between atoms: C_7  and  O_6 
REMARK    5  A    between atoms: C_9  and  C_10 
REMARK    6  A    between atoms: N_15  and  C_14 
REMARK    7  A    between atoms: N_20  and  C_19 
REMARK       I    between atoms: C_22  and  N_20 
ROOT
ATOM      1  C   LIG d   1       0.300  57.139 118.865  0.00  0.00     0.161 C 
ATOM      2  C   LIG d   1      -1.078  57.051 119.119  0.00  0.00     0.016 C 
ATOM      3  C   LIG d   1      -2.060  57.670 118.311  0.00  0.00     0.038 C 
ATOM      4  C   LIG d   1      -1.734  58.297 117.099  0.00  0.00     0.028 C 
ATOM      5  C   LIG d   1      -0.312  58.845 117.064  0.00  0.00    -0.047 C 
ATOM      6  C   LIG d   1       0.668  57.727 117.486  0.00  0.00     0.091 C 
ENDROOT
BRANCH   1   7
ATOM      7  O   LIG d   1       0.913  55.846 119.038  0.00  0.00    -0.368 OA
BRANCH   7   8
ATOM      8  C   LIG d   1       0.335  54.760 118.274  0.00  0.00     0.119 C 
BRANCH   8   9
ATOM      9  C   LIG d   1       0.202  53.549 119.218  0.00  0.00     0.028 C 
ATOM     10  C   LIG d   1       0.179  53.960 120.699  0.00  0.00     0.006 C 
ENDBRANCH   8   9
BRANCH   8  11
ATOM     11  C   LIG d   1       1.278  54.302 117.157  0.00  0.00     0.028 C 
ATOM     12  C   LIG d   1       2.557  53.639 117.691  0.00  0.00     0.006 C 
ENDBRANCH   8  11
ENDBRANCH   7   8
ENDBRANCH   1   7
BRANCH   6  13
ATOM     13  N   LIG d   1       2.074  58.202 117.560  0.00  0.00    -0.311 N 
ATOM     14  C   LIG d   1       2.466  59.216 118.330  0.00  0.00     0.210 C 
ATOM     15  C   LIG d   1       3.957  59.556 118.242  0.00  0.00     0.109 C 
ATOM     16  O   LIG d   1       1.726  59.844 119.102  0.00  0.00    -0.276 OA
ATOM     17  H   LIG d   1       2.746  57.728 116.989  0.00  0.00     0.149 HD
ENDBRANCH   6  13
BRANCH   5  18
ATOM     18  N   LIG d   1      -0.062  59.349 115.700  0.00  0.00     0.381 N 
ATOM     19  H   LIG d   1       0.922  59.353 115.516  0.00  0.00    -0.090 HD
ATOM     20  H   LIG d   1      -0.399  60.293 115.635  0.00  0.00    -0.090 HD
ATOM     21  H   LIG d   1      -0.529  58.774 115.034  0.00  0.00    -0.090 HD
ENDBRANCH   5  18
BRANCH   3  22
ATOM     22  C   LIG d   1      -3.380  57.698 118.734  0.00  0.00     0.382 C 
ATOM     23  O   LIG d   1      -4.098  58.695 118.479  0.00  0.00    -0.241 OA
ATOM     24  O   LIG d   1      -3.849  56.760 119.405  0.00  0.00    -0.241 OA
ENDBRANCH   3  22
TORSDOF 7
ENDMDL
MODEL 7
REMARK VINA RESULT:      -4.7     32.535     34.142
REMARK  7 active torsions:
REMARK  status: ('A' for Active; 'I' for Inactive)
REMARK    1  A    between atoms: C_2  and  C_3 
REMARK    2  A    between atoms: C_3  and  O_6 
REMARK    3  A    between atoms: C_3  and  C_4 
REMARK    4  A    between atoms: C_7  and  O_6 
REMARK    5  A    between atoms: C_9  and  C_10 
REMARK    6  A    between atoms: N_15  and  C_14 
REMARK    7  A    between atoms: N_20  and  C_19 
REMARK       I    between atoms: C_22  and  N_20 
ROOT
ATOM      1  C   LIG d   1      -5.367  92.065 119.146  0.00  0.00     0.161 C 
ATOM      2  C   LIG d   1      -5.765  91.274 118.056  0.00  0.00     0.016 C 
ATOM      3  C   LIG d   1      -6.528  91.767 116.973  0.00  0.00     0.038 C 
ATOM      4  C   LIG d   1      -6.820  93.132 116.833  0.00  0.00     0.028 C 
ATOM      5  C   LIG d   1      -6.873  93.880 118.161  0.00  0.00    -0.047 C 
ATOM      6  C   LIG d   1      -5.581  93.582 118.956  0.00  0.00     0.091 C 
ENDROOT
BRANCH   1   7
ATOM      7  O   LIG d   1      -3.991  91.791 119.474  0.00  0.00    -0.368 OA
BRANCH   7   8
ATOM      8  C   LIG d   1      -3.091  91.619 118.351  0.00  0.00     0.119 C 
BRANCH   8   9
ATOM      9  C   LIG d   1      -2.561  90.173 118.400  0.00  0.00     0.028 C 
ATOM     10  C   LIG d   1      -1.092  90.071 117.957  0.00  0.00     0.006 C 
ENDBRANCH   8   9
BRANCH   8  11
ATOM     11  C   LIG d   1      -1.852  92.510 118.489  0.00  0.00     0.028 C 
ATOM     12  C   LIG d   1      -2.119  93.969 118.087  0.00  0.00     0.006 C 
ENDBRANCH   8  11
ENDBRANCH   7   8
ENDBRANCH   1   7
BRANCH   6  13
ATOM     13  N   LIG d   1      -5.589  94.207 120.305  0.00  0.00    -0.311 N 
ATOM     14  C   LIG d   1      -5.048  95.396 120.565  0.00  0.00     0.210 C 
ATOM     15  C   LIG d   1      -5.148  95.846 122.025  0.00  0.00     0.109 C 
ATOM     16  O   LIG d   1      -4.523  96.134 119.718  0.00  0.00    -0.276 OA
ATOM     17  H   LIG d   1      -6.022  93.690 121.045  0.00  0.00     0.149 HD
ENDBRANCH   6  13
BRANCH   5  18
ATOM     18  N   LIG d   1      -7.048  95.313 117.859  0.00  0.00     0.381 N 
ATOM     19  H   LIG d   1      -6.554  95.864 118.533  0.00  0.00    -0.090 HD
ATOM     20  H   LIG d   1      -8.025  95.541 117.920  0.00  0.00    -0.090 HD
ATOM     21  H   LIG d   1      -6.709  95.513 116.944  0.00  0.00    -0.090 HD
ENDBRANCH   5  18
BRANCH   3  22
ATOM     22  C   LIG d   1      -7.043  90.884 116.036  0.00  0.00     0.382 C 
ATOM     23  O   LIG d   1      -7.989  91.240 115.293  0.00  0.00    -0.241 OA
ATOM     24  O   LIG d   1      -6.602  89.722 115.954  0.00  0.00    -0.241 OA
ENDBRANCH   3  22
TORSDOF 7
ENDMDL
MODEL 8
REMARK VINA RESULT:      -4.7     32.455     34.264
REMARK  7 active torsions:
REMARK  status: ('A' for Active; 'I' for Inactive)
REMARK    1  A    between atoms: C_2  and  C_3 
REMARK    2  A    between atoms: C_3  and  O_6 
REMARK    3  A    between atoms: C_3  and  C_4 
REMARK    4  A    between atoms: C_7  and  O_6 
REMARK    5  A    between atoms: C_9  and  C_10 
REMARK    6  A    between atoms: N_15  and  C_14 
REMARK    7  A    between atoms: N_20  and  C_19 
REMARK       I    between atoms: C_22  and  N_20 
ROOT
ATOM      1  C   LIG d   1      -5.174  93.103 119.079  0.00  0.00     0.161 C 
ATOM      2  C   LIG d   1      -6.336  93.892 119.049  0.00  0.00     0.016 C 
ATOM      3  C   LIG d   1      -7.305  93.813 118.022  0.00  0.00     0.038 C 
ATOM      4  C   LIG d   1      -7.251  92.825 117.027  0.00  0.00     0.028 C 
ATOM      5  C   LIG d   1      -5.836  92.339 116.732  0.00  0.00    -0.047 C 
ATOM      6  C   LIG d   1      -5.154  91.943 118.062  0.00  0.00     0.091 C 
ENDROOT
BRANCH   1   7
ATOM      7  O   LIG d   1      -4.957  92.604 120.413  0.00  0.00    -0.368 OA
BRANCH   7   8
ATOM      8  C   LIG d   1      -3.926  93.269 121.183  0.00  0.00     0.119 C 
BRANCH   8   9
ATOM      9  C   LIG d   1      -2.824  92.232 121.475  0.00  0.00     0.028 C 
ATOM     10  C   LIG d   1      -1.466  92.636 120.878  0.00  0.00     0.006 C 
ENDBRANCH   8   9
BRANCH   8  11
ATOM     11  C   LIG d   1      -4.449  93.703 122.556  0.00  0.00     0.028 C 
ATOM     12  C   LIG d   1      -5.825  93.105 122.886  0.00  0.00     0.006 C 
ENDBRANCH   8  11
ENDBRANCH   7   8
ENDBRANCH   1   7
BRANCH   6  13
ATOM     13  N   LIG d   1      -3.738  91.535 117.873  0.00  0.00    -0.311 N 
ATOM     14  C   LIG d   1      -3.244  90.378 118.310  0.00  0.00     0.210 C 
ATOM     15  C   LIG d   1      -1.753  90.164 118.028  0.00  0.00     0.109 C 
ATOM     16  O   LIG d   1      -3.906  89.495 118.875  0.00  0.00    -0.276 OA
ATOM     17  H   LIG d   1      -3.137  92.179 117.396  0.00  0.00     0.149 HD
ENDBRANCH   6  13
BRANCH   5  18
ATOM     18  N   LIG d   1      -5.940  91.218 115.780  0.00  0.00     0.381 N 
ATOM     19  H   LIG d   1      -6.703  90.624 116.037  0.00  0.00    -0.090 HD
ATOM     20  H   LIG d   1      -5.093  90.678 115.819  0.00  0.00    -0.090 HD
ATOM     21  H   LIG d   1      -6.078  91.566 114.856  0.00  0.00    -0.090 HD
ENDBRANCH   5  18
BRANCH   3  22
ATOM     22  C   LIG d   1      -8.320  94.755 117.961  0.00  0.00     0.382 C 
ATOM     23  O   LIG d   1      -8.040  95.976 117.901  0.00  0.00    -0.241 OA
ATOM     24  O   LIG d   1      -9.514  94.401 118.010  0.00  0.00    -0.241 OA
ENDBRANCH   3  22
TORSDOF 7
ENDMDL
MODEL 9
REMARK VINA RESULT:      -4.7     33.404     35.134
REMARK  7 active torsions:
REMARK  status: ('A' for Active; 'I' for Inactive)
REMARK    1  A    between atoms: C_2  and  C_3 
REMARK    2  A    between atoms: C_3  and  O_6 
REMARK    3  A    between atoms: C_3  and  C_4 
REMARK    4  A    between atoms: C_7  and  O_6 
REMARK    5  A    between atoms: C_9  and  C_10 
REMARK    6  A    between atoms: N_15  and  C_14 
REMARK    7  A    between atoms: N_20  and  C_19 
REMARK       I    between atoms: C_22  and  N_20 
ROOT
ATOM      1  C   LIG d   1      -6.699  93.673 117.913  0.00  0.00     0.161 C 
ATOM      2  C   LIG d   1      -7.445  92.715 117.207  0.00  0.00     0.016 C 
ATOM      3  C   LIG d   1      -6.912  91.482 116.767  0.00  0.00     0.038 C 
ATOM      4  C   LIG d   1      -5.628  91.055 117.138  0.00  0.00     0.028 C 
ATOM      5  C   LIG d   1      -4.666  92.204 117.423  0.00  0.00    -0.047 C 
ATOM      6  C   LIG d   1      -5.329  93.178 118.424  0.00  0.00     0.091 C 
ENDROOT
BRANCH   1   7
ATOM      7  O   LIG d   1      -7.482  94.195 119.005  0.00  0.00    -0.368 OA
BRANCH   7   8
ATOM      8  C   LIG d   1      -7.110  95.510 119.484  0.00  0.00     0.119 C 
BRANCH   8   9
ATOM      9  C   LIG d   1      -8.157  95.934 120.533  0.00  0.00     0.028 C 
ATOM     10  C   LIG d   1      -9.357  94.974 120.585  0.00  0.00     0.006 C 
ENDBRANCH   8   9
BRANCH   8  11
ATOM     11  C   LIG d   1      -7.205  96.557 118.370  0.00  0.00     0.028 C 
ATOM     12  C   LIG d   1      -7.091  97.997 118.894  0.00  0.00     0.006 C 
ENDBRANCH   8  11
ENDBRANCH   7   8
ENDBRANCH   1   7
BRANCH   6  13
ATOM     13  N   LIG d   1      -4.490  94.374 118.691  0.00  0.00    -0.311 N 
ATOM     14  C   LIG d   1      -3.613  94.446 119.691  0.00  0.00     0.210 C 
ATOM     15  C   LIG d   1      -2.865  95.778 119.802  0.00  0.00     0.109 C 
ATOM     16  O   LIG d   1      -3.360  93.521 120.478  0.00  0.00    -0.276 OA
ATOM     17  H   LIG d   1      -4.608  95.160 118.082  0.00  0.00     0.149 HD
ENDBRANCH   6  13
BRANCH   5  18
ATOM     18  N   LIG d   1      -3.411  91.619 117.930  0.00  0.00     0.381 N 
ATOM     19  H   LIG d   1      -3.439  90.624 117.836  0.00  0.00    -0.090 HD
ATOM     20  H   LIG d   1      -3.320  91.842 118.906  0.00  0.00    -0.090 HD
ATOM     21  H   LIG d   1      -2.635  91.987 117.425  0.00  0.00    -0.090 HD
ENDBRANCH   5  18
BRANCH   3  22
ATOM     22  C   LIG d   1      -7.651  90.678 115.913  0.00  0.00     0.382 C 
ATOM     23  O   LIG d   1      -7.608  89.430 116.032  0.00  0.00    -0.241 OA
ATOM     24  O   LIG d   1      -8.327  91.184 114.997  0.00  0.00    -0.241 OA
ENDBRANCH   3  22
TORSDOF 7
ENDMDL
