MODEL 1
REMARK VINA RESULT:      -5.5      0.000      0.000
REMARK  7 active torsions:
REMARK  status: ('A' for Active; 'I' for Inactive)
REMARK    1  A    between atoms: C_2  and  C_3 
REMARK    2  A    between atoms: C_3  and  O_6 
REMARK    3  A    between atoms: C_3  and  C_4 
REMARK    4  A    between atoms: C_7  and  O_6 
REMARK    5  A    between atoms: C_9  and  C_10 
REMARK    6  A    between atoms: N_15  and  C_14 
REMARK    7  A    between atoms: N_20  and  C_19 
REMARK       I    between atoms: C_22  and  N_20 
ROOT
ATOM      1  C   LIG d   1      -4.298  90.801 117.697  0.00  0.00     0.161 C 
ATOM      2  C   LIG d   1      -5.214  90.120 116.877  0.00  0.00     0.016 C 
ATOM      3  C   LIG d   1      -6.460  90.662 116.485  0.00  0.00     0.038 C 
ATOM      4  C   LIG d   1      -6.811  91.992 116.764  0.00  0.00     0.028 C 
ATOM      5  C   LIG d   1      -6.137  92.546 118.015  0.00  0.00    -0.047 C 
ATOM      6  C   LIG d   1      -4.615  92.295 117.918  0.00  0.00     0.091 C 
ENDROOT
BRANCH   1   7
ATOM      7  O   LIG d   1      -2.964  90.644 117.173  0.00  0.00    -0.368 OA
BRANCH   7   8
ATOM      8  C   LIG d   1      -2.019  89.960 118.032  0.00  0.00     0.119 C 
BRANCH   8   9
ATOM      9  C   LIG d   1      -0.609  90.219 117.467  0.00  0.00     0.028 C 
ATOM     10  C   LIG d   1       0.247  91.090 118.403  0.00  0.00     0.006 C 
ENDBRANCH   8   9
BRANCH   8  11
ATOM     11  C   LIG d   1      -2.208  88.441 117.969  0.00  0.00     0.028 C 
ATOM     12  C   LIG d   1      -2.543  87.825 119.336  0.00  0.00     0.006 C 
ENDBRANCH   8  11
ENDBRANCH   7   8
ENDBRANCH   1   7
BRANCH   6  13
ATOM     13  N   LIG d   1      -3.890  92.732 119.140  0.00  0.00    -0.311 N 
ATOM     14  C   LIG d   1      -2.725  93.378 119.110  0.00  0.00     0.210 C 
ATOM     15  C   LIG d   1      -2.139  93.719 120.483  0.00  0.00     0.109 C 
ATOM     16  O   LIG d   1      -2.138  93.729 118.075  0.00  0.00    -0.276 OA
ATOM     17  H   LIG d   1      -4.311  92.515 120.022  0.00  0.00     0.149 HD
ENDBRANCH   6  13
BRANCH   5  18
ATOM     18  N   LIG d   1      -6.482  93.978 118.109  0.00  0.00     0.381 N 
ATOM     19  H   LIG d   1      -6.637  94.350 117.193  0.00  0.00    -0.090 HD
ATOM     20  H   LIG d   1      -5.711  94.471 118.524  0.00  0.00    -0.090 HD
ATOM     21  H   LIG d   1      -7.300  94.095 118.666  0.00  0.00    -0.090 HD
ENDBRANCH   5  18
BRANCH   3  22
ATOM     22  C   LIG d   1      -7.387  89.858 115.840  0.00  0.00     0.382 C 
ATOM     23  O   LIG d   1      -8.138  89.108 116.508  0.00  0.00    -0.241 OA
ATOM     24  O   LIG d   1      -7.451  89.840 114.597  0.00  0.00    -0.241 OA
ENDBRANCH   3  22
TORSDOF 7
ENDMDL
MODEL 2
REMARK VINA RESULT:      -5.5      2.266      4.424
REMARK  7 active torsions:
REMARK  status: ('A' for Active; 'I' for Inactive)
REMARK    1  A    between atoms: C_2  and  C_3 
REMARK    2  A    between atoms: C_3  and  O_6 
REMARK    3  A    between atoms: C_3  and  C_4 
REMARK    4  A    between atoms: C_7  and  O_6 
REMARK    5  A    between atoms: C_9  and  C_10 
REMARK    6  A    between atoms: N_15  and  C_14 
REMARK    7  A    between atoms: N_20  and  C_19 
REMARK       I    between atoms: C_22  and  N_20 
ROOT
ATOM      1  C   LIG d   1      -5.761  92.421 118.147  0.00  0.00     0.161 C 
ATOM      2  C   LIG d   1      -6.685  91.587 117.496  0.00  0.00     0.016 C 
ATOM      3  C   LIG d   1      -6.308  90.475 116.707  0.00  0.00     0.038 C 
ATOM      4  C   LIG d   1      -4.980  90.030 116.639  0.00  0.00     0.028 C 
ATOM      5  C   LIG d   1      -3.957  91.137 116.871  0.00  0.00    -0.047 C 
ATOM      6  C   LIG d   1      -4.314  91.885 118.175  0.00  0.00     0.091 C 
ENDROOT
BRANCH   1   7
ATOM      7  O   LIG d   1      -6.216  92.704 119.485  0.00  0.00    -0.368 OA
BRANCH   7   8
ATOM      8  C   LIG d   1      -7.055  93.876 119.638  0.00  0.00     0.119 C 
BRANCH   8   9
ATOM      9  C   LIG d   1      -6.156  95.115 119.462  0.00  0.00     0.028 C 
ATOM     10  C   LIG d   1      -5.193  95.314 120.644  0.00  0.00     0.006 C 
ENDBRANCH   8   9
BRANCH   8  11
ATOM     11  C   LIG d   1      -7.614  93.979 121.060  0.00  0.00     0.028 C 
ATOM     12  C   LIG d   1      -9.150  93.958 121.099  0.00  0.00     0.006 C 
ENDBRANCH   8  11
ENDBRANCH   7   8
ENDBRANCH   1   7
BRANCH   6  13
ATOM     13  N   LIG d   1      -3.412  93.039 118.432  0.00  0.00    -0.311 N 
ATOM     14  C   LIG d   1      -2.323  92.962 119.195  0.00  0.00     0.210 C 
ATOM     15  C   LIG d   1      -1.545  94.273 119.345  0.00  0.00     0.109 C 
ATOM     16  O   LIG d   1      -1.910  91.925 119.736  0.00  0.00    -0.276 OA
ATOM     17  H   LIG d   1      -3.656  93.911 118.006  0.00  0.00     0.149 HD
ENDBRANCH   6  13
BRANCH   5  18
ATOM     18  N   LIG d   1      -2.623  90.510 116.910  0.00  0.00     0.381 N 
ATOM     19  H   LIG d   1      -2.637  89.650 116.399  0.00  0.00    -0.090 HD
ATOM     20  H   LIG d   1      -2.387  90.306 117.865  0.00  0.00    -0.090 HD
ATOM     21  H   LIG d   1      -1.945  91.126 116.517  0.00  0.00    -0.090 HD
ENDBRANCH   5  18
BRANCH   3  22
ATOM     22  C   LIG d   1      -7.262  89.820 115.943  0.00  0.00     0.382 C 
ATOM     23  O   LIG d   1      -8.131  89.107 116.501  0.00  0.00    -0.241 OA
ATOM     24  O   LIG d   1      -7.239  89.898 114.700  0.00  0.00    -0.241 OA
ENDBRANCH   3  22
TORSDOF 7
ENDMDL
MODEL 3
REMARK VINA RESULT:      -5.4     14.430     16.630
REMARK  7 active torsions:
REMARK  status: ('A' for Active; 'I' for Inactive)
REMARK    1  A    between atoms: C_2  and  C_3 
REMARK    2  A    between atoms: C_3  and  O_6 
REMARK    3  A    between atoms: C_3  and  C_4 
REMARK    4  A    between atoms: C_7  and  O_6 
REMARK    5  A    between atoms: C_9  and  C_10 
REMARK    6  A    between atoms: N_15  and  C_14 
REMARK    7  A    between atoms: N_20  and  C_19 
REMARK       I    between atoms: C_22  and  N_20 
ROOT
ATOM      1  C   LIG d   1      -7.583  75.004 117.788  0.00  0.00     0.161 C 
ATOM      2  C   LIG d   1      -8.861  75.528 118.043  0.00  0.00     0.016 C 
ATOM      3  C   LIG d   1      -9.134  76.914 118.114  0.00  0.00     0.038 C 
ATOM      4  C   LIG d   1      -8.170  77.877 117.781  0.00  0.00     0.028 C 
ATOM      5  C   LIG d   1      -6.738  77.405 118.009  0.00  0.00    -0.047 C 
ATOM      6  C   LIG d   1      -6.543  76.039 117.312  0.00  0.00     0.091 C 
ENDROOT
BRANCH   1   7
ATOM      7  O   LIG d   1      -7.680  73.920 116.842  0.00  0.00    -0.368 OA
BRANCH   7   8
ATOM      8  C   LIG d   1      -7.878  72.600 117.404  0.00  0.00     0.119 C 
BRANCH   8   9
ATOM      9  C   LIG d   1      -6.688  71.726 116.964  0.00  0.00     0.028 C 
ATOM     10  C   LIG d   1      -6.159  72.112 115.573  0.00  0.00     0.006 C 
ENDBRANCH   8   9
BRANCH   8  11
ATOM     11  C   LIG d   1      -9.119  71.923 116.813  0.00  0.00     0.028 C 
ATOM     12  C   LIG d   1      -9.176  70.417 117.113  0.00  0.00     0.006 C 
ENDBRANCH   8  11
ENDBRANCH   7   8
ENDBRANCH   1   7
BRANCH   6  13
ATOM     13  N   LIG d   1      -5.194  75.466 117.557  0.00  0.00    -0.311 N 
ATOM     14  C   LIG d   1      -4.165  75.630 116.727  0.00  0.00     0.210 C 
ATOM     15  C   LIG d   1      -2.868  74.938 117.159  0.00  0.00     0.109 C 
ATOM     16  O   LIG d   1      -4.195  76.311 115.691  0.00  0.00    -0.276 OA
ATOM     17  H   LIG d   1      -5.072  74.925 118.391  0.00  0.00     0.149 HD
ENDBRANCH   6  13
BRANCH   5  18
ATOM     18  N   LIG d   1      -5.836  78.452 117.493  0.00  0.00     0.381 N 
ATOM     19  H   LIG d   1      -4.989  78.035 117.161  0.00  0.00    -0.090 HD
ATOM     20  H   LIG d   1      -5.605  79.080 118.243  0.00  0.00    -0.090 HD
ATOM     21  H   LIG d   1      -6.281  78.952 116.756  0.00  0.00    -0.090 HD
ENDBRANCH   5  18
BRANCH   3  22
ATOM     22  C   LIG d   1     -10.373  77.349 118.559  0.00  0.00     0.382 C 
ATOM     23  O   LIG d   1     -11.010  76.670 119.400  0.00  0.00    -0.241 OA
ATOM     24  O   LIG d   1     -10.881  78.388 118.098  0.00  0.00    -0.241 OA
ENDBRANCH   3  22
TORSDOF 7
ENDMDL
MODEL 4
REMARK VINA RESULT:      -5.3      2.316      4.056
REMARK  7 active torsions:
REMARK  status: ('A' for Active; 'I' for Inactive)
REMARK    1  A    between atoms: C_2  and  C_3 
REMARK    2  A    between atoms: C_3  and  O_6 
REMARK    3  A    between atoms: C_3  and  C_4 
REMARK    4  A    between atoms: C_7  and  O_6 
REMARK    5  A    between atoms: C_9  and  C_10 
REMARK    6  A    between atoms: N_15  and  C_14 
REMARK    7  A    between atoms: N_20  and  C_19 
REMARK       I    between atoms: C_22  and  N_20 
ROOT
ATOM      1  C   LIG d   1      -4.098  91.845 118.155  0.00  0.00     0.161 C 
ATOM      2  C   LIG d   1      -5.381  92.416 118.128  0.00  0.00     0.016 C 
ATOM      3  C   LIG d   1      -6.405  91.989 117.251  0.00  0.00     0.038 C 
ATOM      4  C   LIG d   1      -6.261  90.854 116.440  0.00  0.00     0.028 C 
ATOM      5  C   LIG d   1      -4.813  90.556 116.068  0.00  0.00    -0.047 C 
ATOM      6  C   LIG d   1      -3.958  90.533 117.355  0.00  0.00     0.091 C 
ENDROOT
BRANCH   1   7
ATOM      7  O   LIG d   1      -3.679  91.647 119.520  0.00  0.00    -0.368 OA
BRANCH   7   8
ATOM      8  C   LIG d   1      -2.574  92.467 119.972  0.00  0.00     0.119 C 
BRANCH   8   9
ATOM      9  C   LIG d   1      -3.134  93.477 120.993  0.00  0.00     0.028 C 
ATOM     10  C   LIG d   1      -3.430  94.847 120.361  0.00  0.00     0.006 C 
ENDBRANCH   8   9
BRANCH   8  11
ATOM     11  C   LIG d   1      -2.006  93.317 118.831  0.00  0.00     0.028 C 
ATOM     12  C   LIG d   1      -0.538  92.988 118.517  0.00  0.00     0.006 C 
ENDBRANCH   8  11
ENDBRANCH   7   8
ENDBRANCH   1   7
BRANCH   6  13
ATOM     13  N   LIG d   1      -2.513  90.330 117.072  0.00  0.00    -0.311 N 
ATOM     14  C   LIG d   1      -1.741  89.493 117.763  0.00  0.00     0.210 C 
ATOM     15  C   LIG d   1      -0.275  89.451 117.320  0.00  0.00     0.109 C 
ATOM     16  O   LIG d   1      -2.138  88.758 118.679  0.00  0.00    -0.276 OA
ATOM     17  H   LIG d   1      -2.115  90.865 116.325  0.00  0.00     0.149 HD
ENDBRANCH   6  13
BRANCH   5  18
ATOM     18  N   LIG d   1      -4.795  89.273 115.339  0.00  0.00     0.381 N 
ATOM     19  H   LIG d   1      -5.466  89.296 114.597  0.00  0.00    -0.090 HD
ATOM     20  H   LIG d   1      -5.050  88.536 115.973  0.00  0.00    -0.090 HD
ATOM     21  H   LIG d   1      -3.886  89.103 114.969  0.00  0.00    -0.090 HD
ENDBRANCH   5  18
BRANCH   3  22
ATOM     22  C   LIG d   1      -7.575  92.726 117.151  0.00  0.00     0.382 C 
ATOM     23  O   LIG d   1      -7.951  93.158 116.035  0.00  0.00    -0.241 OA
ATOM     24  O   LIG d   1      -8.237  93.003 118.170  0.00  0.00    -0.241 OA
ENDBRANCH   3  22
TORSDOF 7
ENDMDL
MODEL 5
REMARK VINA RESULT:      -5.2      1.626      4.696
REMARK  7 active torsions:
REMARK  status: ('A' for Active; 'I' for Inactive)
REMARK    1  A    between atoms: C_2  and  C_3 
REMARK    2  A    between atoms: C_3  and  O_6 
REMARK    3  A    between atoms: C_3  and  C_4 
REMARK    4  A    between atoms: C_7  and  O_6 
REMARK    5  A    between atoms: C_9  and  C_10 
REMARK    6  A    between atoms: N_15  and  C_14 
REMARK    7  A    between atoms: N_20  and  C_19 
REMARK       I    between atoms: C_22  and  N_20 
ROOT
ATOM      1  C   LIG d   1      -3.923  91.729 117.406  0.00  0.00     0.161 C 
ATOM      2  C   LIG d   1      -3.268  92.441 118.425  0.00  0.00     0.016 C 
ATOM      3  C   LIG d   1      -3.946  93.083 119.486  0.00  0.00     0.038 C 
ATOM      4  C   LIG d   1      -5.326  92.927 119.686  0.00  0.00     0.028 C 
ATOM      5  C   LIG d   1      -6.095  92.636 118.402  0.00  0.00    -0.047 C 
ATOM      6  C   LIG d   1      -5.419  91.455 117.669  0.00  0.00     0.091 C 
ENDROOT
BRANCH   1   7
ATOM      7  O   LIG d   1      -3.225  90.495 117.146  0.00  0.00    -0.368 OA
BRANCH   7   8
ATOM      8  C   LIG d   1      -2.305  90.054 118.175  0.00  0.00     0.119 C 
BRANCH   8   9
ATOM      9  C   LIG d   1      -0.977  89.691 117.483  0.00  0.00     0.028 C 
ATOM     10  C   LIG d   1       0.036  90.848 117.513  0.00  0.00     0.006 C 
ENDBRANCH   8   9
BRANCH   8  11
ATOM     11  C   LIG d   1      -2.787  88.758 118.835  0.00  0.00     0.028 C 
ATOM     12  C   LIG d   1      -3.672  89.010 120.066  0.00  0.00     0.006 C 
ENDBRANCH   8  11
ENDBRANCH   7   8
ENDBRANCH   1   7
BRANCH   6  13
ATOM     13  N   LIG d   1      -6.058  91.159 116.360  0.00  0.00    -0.311 N 
ATOM     14  C   LIG d   1      -7.047  90.280 116.210  0.00  0.00     0.210 C 
ATOM     15  C   LIG d   1      -7.549  90.112 114.772  0.00  0.00     0.109 C 
ATOM     16  O   LIG d   1      -7.578  89.648 117.135  0.00  0.00    -0.276 OA
ATOM     17  H   LIG d   1      -5.709  91.651 115.561  0.00  0.00     0.149 HD
ENDBRANCH   6  13
BRANCH   5  18
ATOM     18  N   LIG d   1      -7.495  92.360 118.773  0.00  0.00     0.381 N 
ATOM     19  H   LIG d   1      -8.013  92.082 117.963  0.00  0.00    -0.090 HD
ATOM     20  H   LIG d   1      -7.907  93.202 119.137  0.00  0.00    -0.090 HD
ATOM     21  H   LIG d   1      -7.530  91.640 119.462  0.00  0.00    -0.090 HD
ENDBRANCH   5  18
BRANCH   3  22
ATOM     22  C   LIG d   1      -3.248  93.924 120.340  0.00  0.00     0.382 C 
ATOM     23  O   LIG d   1      -2.168  94.440 119.965  0.00  0.00    -0.241 OA
ATOM     24  O   LIG d   1      -3.662  94.137 121.495  0.00  0.00    -0.241 OA
ENDBRANCH   3  22
TORSDOF 7
ENDMDL
MODEL 6
REMARK VINA RESULT:      -5.2      1.480      2.182
REMARK  7 active torsions:
REMARK  status: ('A' for Active; 'I' for Inactive)
REMARK    1  A    between atoms: C_2  and  C_3 
REMARK    2  A    between atoms: C_3  and  O_6 
REMARK    3  A    between atoms: C_3  and  C_4 
REMARK    4  A    between atoms: C_7  and  O_6 
REMARK    5  A    between atoms: C_9  and  C_10 
REMARK    6  A    between atoms: N_15  and  C_14 
REMARK    7  A    between atoms: N_20  and  C_19 
REMARK       I    between atoms: C_22  and  N_20 
ROOT
ATOM      1  C   LIG d   1      -4.984  91.105 119.026  0.00  0.00     0.161 C 
ATOM      2  C   LIG d   1      -5.526  90.338 117.981  0.00  0.00     0.016 C 
ATOM      3  C   LIG d   1      -6.419  90.857 117.017  0.00  0.00     0.038 C 
ATOM      4  C   LIG d   1      -6.716  92.227 116.942  0.00  0.00     0.028 C 
ATOM      5  C   LIG d   1      -6.589  92.947 118.280  0.00  0.00    -0.047 C 
ATOM      6  C   LIG d   1      -5.208  92.626 118.895  0.00  0.00     0.091 C 
ENDROOT
BRANCH   1   7
ATOM      7  O   LIG d   1      -3.579  90.815 119.166  0.00  0.00    -0.368 OA
BRANCH   7   8
ATOM      8  C   LIG d   1      -2.715  91.331 118.123  0.00  0.00     0.119 C 
BRANCH   8   9
ATOM      9  C   LIG d   1      -1.930  90.139 117.541  0.00  0.00     0.028 C 
ATOM     10  C   LIG d   1      -2.166  88.840 118.329  0.00  0.00     0.006 C 
ENDBRANCH   8   9
BRANCH   8  11
ATOM     11  C   LIG d   1      -1.653  92.274 118.695  0.00  0.00     0.028 C 
ATOM     12  C   LIG d   1      -1.479  92.125 120.215  0.00  0.00     0.006 C 
ENDBRANCH   8  11
ENDBRANCH   7   8
ENDBRANCH   1   7
BRANCH   6  13
ATOM     13  N   LIG d   1      -5.035  93.223 120.244  0.00  0.00    -0.311 N 
ATOM     14  C   LIG d   1      -4.409  94.379 120.459  0.00  0.00     0.210 C 
ATOM     15  C   LIG d   1      -4.324  94.805 121.929  0.00  0.00     0.109 C 
ATOM     16  O   LIG d   1      -3.945  95.108 119.570  0.00  0.00    -0.276 OA
ATOM     17  H   LIG d   1      -5.409  92.713 121.021  0.00  0.00     0.149 HD
ENDBRANCH   6  13
BRANCH   5  18
ATOM     18  N   LIG d   1      -6.790  94.387 118.031  0.00  0.00     0.381 N 
ATOM     19  H   LIG d   1      -5.921  94.872 118.128  0.00  0.00    -0.090 HD
ATOM     20  H   LIG d   1      -7.431  94.749 118.715  0.00  0.00    -0.090 HD
ATOM     21  H   LIG d   1      -7.156  94.527 117.115  0.00  0.00    -0.090 HD
ENDBRANCH   5  18
BRANCH   3  22
ATOM     22  C   LIG d   1      -7.059  89.996 116.137  0.00  0.00     0.382 C 
ATOM     23  O   LIG d   1      -6.743  89.992 114.923  0.00  0.00    -0.241 OA
ATOM     24  O   LIG d   1      -7.978  89.256 116.535  0.00  0.00    -0.241 OA
ENDBRANCH   3  22
TORSDOF 7
ENDMDL
MODEL 7
REMARK VINA RESULT:      -5.0     12.519     14.610
REMARK  7 active torsions:
REMARK  status: ('A' for Active; 'I' for Inactive)
REMARK    1  A    between atoms: C_2  and  C_3 
REMARK    2  A    between atoms: C_3  and  O_6 
REMARK    3  A    between atoms: C_3  and  C_4 
REMARK    4  A    between atoms: C_7  and  O_6 
REMARK    5  A    between atoms: C_9  and  C_10 
REMARK    6  A    between atoms: N_15  and  C_14 
REMARK    7  A    between atoms: N_20  and  C_19 
REMARK       I    between atoms: C_22  and  N_20 
ROOT
ATOM      1  C   LIG d   1      -7.161  76.762 117.938  0.00  0.00     0.161 C 
ATOM      2  C   LIG d   1      -8.535  76.994 118.115  0.00  0.00     0.016 C 
ATOM      3  C   LIG d   1      -9.109  78.286 118.141  0.00  0.00     0.038 C 
ATOM      4  C   LIG d   1      -8.362  79.435 117.840  0.00  0.00     0.028 C 
ATOM      5  C   LIG d   1      -6.877  79.292 118.153  0.00  0.00    -0.047 C 
ATOM      6  C   LIG d   1      -6.348  77.997 117.497  0.00  0.00     0.091 C 
ENDROOT
BRANCH   1   7
ATOM      7  O   LIG d   1      -6.964  75.675 117.012  0.00  0.00    -0.368 OA
BRANCH   7   8
ATOM      8  C   LIG d   1      -6.360  74.476 117.556  0.00  0.00     0.119 C 
BRANCH   8   9
ATOM      9  C   LIG d   1      -5.099  74.174 116.723  0.00  0.00     0.028 C 
ATOM     10  C   LIG d   1      -5.033  75.010 115.434  0.00  0.00     0.006 C 
ENDBRANCH   8   9
BRANCH   8  11
ATOM     11  C   LIG d   1      -7.271  73.259 117.368  0.00  0.00     0.028 C 
ATOM     12  C   LIG d   1      -6.488  71.944 117.232  0.00  0.00     0.006 C 
ENDBRANCH   8  11
ENDBRANCH   7   8
ENDBRANCH   1   7
BRANCH   6  13
ATOM     13  N   LIG d   1      -4.921  77.737 117.825  0.00  0.00    -0.311 N 
ATOM     14  C   LIG d   1      -3.907  78.171 117.079  0.00  0.00     0.210 C 
ATOM     15  C   LIG d   1      -2.516  77.775 117.586  0.00  0.00     0.109 C 
ATOM     16  O   LIG d   1      -4.025  78.873 116.064  0.00  0.00    -0.276 OA
ATOM     17  H   LIG d   1      -4.733  77.201 118.649  0.00  0.00     0.149 HD
ENDBRANCH   6  13
BRANCH   5  18
ATOM     18  N   LIG d   1      -6.199  80.507 117.664  0.00  0.00     0.381 N 
ATOM     19  H   LIG d   1      -6.827  81.040 117.095  0.00  0.00    -0.090 HD
ATOM     20  H   LIG d   1      -5.414  80.236 117.098  0.00  0.00    -0.090 HD
ATOM     21  H   LIG d   1      -5.888  81.058 118.434  0.00  0.00    -0.090 HD
ENDBRANCH   5  18
BRANCH   3  22
ATOM     22  C   LIG d   1     -10.436  78.442 118.511  0.00  0.00     0.382 C 
ATOM     23  O   LIG d   1     -10.787  79.444 119.180  0.00  0.00    -0.241 OA
ATOM     24  O   LIG d   1     -11.278  77.570 118.223  0.00  0.00    -0.241 OA
ENDBRANCH   3  22
TORSDOF 7
ENDMDL
MODEL 8
REMARK VINA RESULT:      -4.9     13.284     15.564
REMARK  7 active torsions:
REMARK  status: ('A' for Active; 'I' for Inactive)
REMARK    1  A    between atoms: C_2  and  C_3 
REMARK    2  A    between atoms: C_3  and  O_6 
REMARK    3  A    between atoms: C_3  and  C_4 
REMARK    4  A    between atoms: C_7  and  O_6 
REMARK    5  A    between atoms: C_9  and  C_10 
REMARK    6  A    between atoms: N_15  and  C_14 
REMARK    7  A    between atoms: N_20  and  C_19 
REMARK       I    between atoms: C_22  and  N_20 
ROOT
ATOM      1  C   LIG d   1      -6.419  76.766 116.477  0.00  0.00     0.161 C 
ATOM      2  C   LIG d   1      -7.714  76.549 116.975  0.00  0.00     0.016 C 
ATOM      3  C   LIG d   1      -8.131  75.326 117.550  0.00  0.00     0.038 C 
ATOM      4  C   LIG d   1      -7.231  74.281 117.803  0.00  0.00     0.028 C 
ATOM      5  C   LIG d   1      -6.034  74.269 116.859  0.00  0.00    -0.047 C 
ATOM      6  C   LIG d   1      -5.392  75.675 116.846  0.00  0.00     0.091 C 
ENDROOT
BRANCH   1   7
ATOM      7  O   LIG d   1      -5.945  78.062 116.895  0.00  0.00    -0.368 OA
BRANCH   7   8
ATOM      8  C   LIG d   1      -6.732  78.730 117.912  0.00  0.00     0.119 C 
BRANCH   8   9
ATOM      9  C   LIG d   1      -6.700  80.240 117.603  0.00  0.00     0.028 C 
ATOM     10  C   LIG d   1      -8.098  80.880 117.661  0.00  0.00     0.006 C 
ENDBRANCH   8   9
BRANCH   8  11
ATOM     11  C   LIG d   1      -6.092  78.586 119.296  0.00  0.00     0.028 C 
ATOM     12  C   LIG d   1      -7.074  78.057 120.353  0.00  0.00     0.006 C 
ENDBRANCH   8  11
ENDBRANCH   7   8
ENDBRANCH   1   7
BRANCH   6  13
ATOM     13  N   LIG d   1      -4.265  75.774 115.882  0.00  0.00    -0.311 N 
ATOM     14  C   LIG d   1      -2.996  75.535 116.211  0.00  0.00     0.210 C 
ATOM     15  C   LIG d   1      -1.988  75.714 115.072  0.00  0.00     0.109 C 
ATOM     16  O   LIG d   1      -2.614  75.160 117.330  0.00  0.00    -0.276 OA
ATOM     17  H   LIG d   1      -4.488  76.042 114.944  0.00  0.00     0.149 HD
ENDBRANCH   6  13
BRANCH   5  18
ATOM     18  N   LIG d   1      -5.111  73.216 117.322  0.00  0.00     0.381 N 
ATOM     19  H   LIG d   1      -4.166  73.500 117.161  0.00  0.00    -0.090 HD
ATOM     20  H   LIG d   1      -5.283  72.378 116.794  0.00  0.00    -0.090 HD
ATOM     21  H   LIG d   1      -5.253  73.041 118.292  0.00  0.00    -0.090 HD
ENDBRANCH   5  18
BRANCH   3  22
ATOM     22  C   LIG d   1      -9.472  75.126 117.841  0.00  0.00     0.382 C 
ATOM     23  O   LIG d   1      -9.941  73.963 117.867  0.00  0.00    -0.241 OA
ATOM     24  O   LIG d   1     -10.229  76.097 118.033  0.00  0.00    -0.241 OA
ENDBRANCH   3  22
TORSDOF 7
ENDMDL
MODEL 9
REMARK VINA RESULT:      -4.9     13.681     16.350
REMARK  7 active torsions:
REMARK  status: ('A' for Active; 'I' for Inactive)
REMARK    1  A    between atoms: C_2  and  C_3 
REMARK    2  A    between atoms: C_3  and  O_6 
REMARK    3  A    between atoms: C_3  and  C_4 
REMARK    4  A    between atoms: C_7  and  O_6 
REMARK    5  A    between atoms: C_9  and  C_10 
REMARK    6  A    between atoms: N_15  and  C_14 
REMARK    7  A    between atoms: N_20  and  C_19 
REMARK       I    between atoms: C_22  and  N_20 
ROOT
ATOM      1  C   LIG d   1      -2.663  75.913 117.705  0.00  0.00     0.161 C 
ATOM      2  C   LIG d   1      -2.785  76.904 116.717  0.00  0.00     0.016 C 
ATOM      3  C   LIG d   1      -1.677  77.494 116.066  0.00  0.00     0.038 C 
ATOM      4  C   LIG d   1      -0.370  77.022 116.253  0.00  0.00     0.028 C 
ATOM      5  C   LIG d   1      -0.150  76.368 117.613  0.00  0.00    -0.047 C 
ATOM      6  C   LIG d   1      -1.251  75.307 117.842  0.00  0.00     0.091 C 
ENDROOT
BRANCH   1   7
ATOM      7  O   LIG d   1      -3.634  74.873 117.477  0.00  0.00    -0.368 OA
BRANCH   7   8
ATOM      8  C   LIG d   1      -4.955  75.312 117.073  0.00  0.00     0.119 C 
BRANCH   8   9
ATOM      9  C   LIG d   1      -5.905  75.078 118.264  0.00  0.00     0.028 C 
ATOM     10  C   LIG d   1      -7.378  75.320 117.896  0.00  0.00     0.006 C 
ENDBRANCH   8   9
BRANCH   8  11
ATOM     11  C   LIG d   1      -5.507  74.445 115.938  0.00  0.00     0.028 C 
ATOM     12  C   LIG d   1      -4.990  74.874 114.555  0.00  0.00     0.006 C 
ENDBRANCH   8  11
ENDBRANCH   7   8
ENDBRANCH   1   7
BRANCH   6  13
ATOM     13  N   LIG d   1      -1.160  74.677 119.186  0.00  0.00    -0.311 N 
ATOM     14  C   LIG d   1      -0.475  73.561 119.427  0.00  0.00     0.210 C 
ATOM     15  C   LIG d   1      -0.528  73.071 120.878  0.00  0.00     0.109 C 
ATOM     16  O   LIG d   1       0.198  72.948 118.585  0.00  0.00    -0.276 OA
ATOM     17  H   LIG d   1      -1.650  75.126 119.934  0.00  0.00     0.149 HD
ENDBRANCH   6  13
BRANCH   5  18
ATOM     18  N   LIG d   1       1.211  75.800 117.620  0.00  0.00     0.381 N 
ATOM     19  H   LIG d   1       1.884  76.535 117.709  0.00  0.00    -0.090 HD
ATOM     20  H   LIG d   1       1.372  75.330 116.746  0.00  0.00    -0.090 HD
ATOM     21  H   LIG d   1       1.309  75.157 118.374  0.00  0.00    -0.090 HD
ENDBRANCH   5  18
BRANCH   3  22
ATOM     22  C   LIG d   1      -1.869  78.597 115.247  0.00  0.00     0.382 C 
ATOM     23  O   LIG d   1      -0.884  79.277 114.871  0.00  0.00    -0.241 OA
ATOM     24  O   LIG d   1      -3.018  78.945 114.916  0.00  0.00    -0.241 OA
ENDBRANCH   3  22
TORSDOF 7
ENDMDL
