MODEL 1
REMARK VINA RESULT:      -5.8      0.000      0.000
REMARK  7 active torsions:
REMARK  status: ('A' for Active; 'I' for Inactive)
REMARK    1  A    between atoms: C_2  and  C_3 
REMARK    2  A    between atoms: C_3  and  O_6 
REMARK    3  A    between atoms: C_3  and  C_4 
REMARK    4  A    between atoms: C_7  and  O_6 
REMARK    5  A    between atoms: C_9  and  C_10 
REMARK    6  A    between atoms: N_15  and  C_14 
REMARK    7  A    between atoms: N_20  and  C_19 
REMARK       I    between atoms: C_22  and  N_20 
ROOT
ATOM      1  C   LIG d   1      -5.748  92.908 117.399  0.00  0.00     0.161 C 
ATOM      2  C   LIG d   1      -6.815  92.040 117.115  0.00  0.00     0.016 C 
ATOM      3  C   LIG d   1      -6.641  90.685 116.750  0.00  0.00     0.038 C 
ATOM      4  C   LIG d   1      -5.385  90.062 116.792  0.00  0.00     0.028 C 
ATOM      5  C   LIG d   1      -4.223  91.027 116.583  0.00  0.00    -0.047 C 
ATOM      6  C   LIG d   1      -4.377  92.216 117.558  0.00  0.00     0.091 C 
ENDROOT
BRANCH   1   7
ATOM      7  O   LIG d   1      -6.053  93.690 118.570  0.00  0.00    -0.368 OA
BRANCH   7   8
ATOM      8  C   LIG d   1      -6.606  95.008 118.330  0.00  0.00     0.119 C 
BRANCH   8   9
ATOM      9  C   LIG d   1      -5.901  95.987 119.289  0.00  0.00     0.028 C 
ATOM     10  C   LIG d   1      -4.708  95.343 120.013  0.00  0.00     0.006 C 
ENDBRANCH   8   9
BRANCH   8  11
ATOM     11  C   LIG d   1      -8.089  95.067 118.707  0.00  0.00     0.028 C 
ATOM     12  C   LIG d   1      -8.390  94.380 120.049  0.00  0.00     0.006 C 
ENDBRANCH   8  11
ENDBRANCH   7   8
ENDBRANCH   1   7
BRANCH   6  13
ATOM     13  N   LIG d   1      -3.327  93.250 117.362  0.00  0.00    -0.311 N 
ATOM     14  C   LIG d   1      -2.207  93.301 118.080  0.00  0.00     0.210 C 
ATOM     15  C   LIG d   1      -1.267  94.459 117.730  0.00  0.00     0.109 C 
ATOM     16  O   LIG d   1      -1.887  92.479 118.952  0.00  0.00    -0.276 OA
ATOM     17  H   LIG d   1      -3.491  93.938 116.654  0.00  0.00     0.149 HD
ENDBRANCH   6  13
BRANCH   5  18
ATOM     18  N   LIG d   1      -2.973  90.270 116.788  0.00  0.00     0.381 N 
ATOM     19  H   LIG d   1      -3.055  89.363 116.375  0.00  0.00    -0.090 HD
ATOM     20  H   LIG d   1      -2.821  90.155 117.774  0.00  0.00    -0.090 HD
ATOM     21  H   LIG d   1      -2.207  90.760 116.381  0.00  0.00    -0.090 HD
ENDBRANCH   5  18
BRANCH   3  22
ATOM     22  C   LIG d   1      -7.727  89.950 116.299  0.00  0.00     0.382 C 
ATOM     23  O   LIG d   1      -7.979  88.830 116.806  0.00  0.00    -0.241 OA
ATOM     24  O   LIG d   1      -8.430  90.372 115.362  0.00  0.00    -0.241 OA
ENDBRANCH   3  22
TORSDOF 7
ENDMDL
MODEL 2
REMARK VINA RESULT:      -5.3      1.952      4.704
REMARK  7 active torsions:
REMARK  status: ('A' for Active; 'I' for Inactive)
REMARK    1  A    between atoms: C_2  and  C_3 
REMARK    2  A    between atoms: C_3  and  O_6 
REMARK    3  A    between atoms: C_3  and  C_4 
REMARK    4  A    between atoms: C_7  and  O_6 
REMARK    5  A    between atoms: C_9  and  C_10 
REMARK    6  A    between atoms: N_15  and  C_14 
REMARK    7  A    between atoms: N_20  and  C_19 
REMARK       I    between atoms: C_22  and  N_20 
ROOT
ATOM      1  C   LIG d   1      -5.952  92.883 117.525  0.00  0.00     0.161 C 
ATOM      2  C   LIG d   1      -7.229  93.422 117.755  0.00  0.00     0.016 C 
ATOM      3  C   LIG d   1      -7.507  94.355 118.780  0.00  0.00     0.038 C 
ATOM      4  C   LIG d   1      -6.489  94.931 119.554  0.00  0.00     0.028 C 
ATOM      5  C   LIG d   1      -5.258  94.043 119.694  0.00  0.00    -0.047 C 
ATOM      6  C   LIG d   1      -4.808  93.584 118.288  0.00  0.00     0.091 C 
ENDROOT
BRANCH   1   7
ATOM      7  O   LIG d   1      -5.676  92.868 116.111  0.00  0.00    -0.368 OA
BRANCH   7   8
ATOM      8  C   LIG d   1      -5.715  91.570 115.468  0.00  0.00     0.119 C 
BRANCH   8   9
ATOM      9  C   LIG d   1      -7.122  91.394 114.866  0.00  0.00     0.028 C 
ATOM     10  C   LIG d   1      -7.934  90.302 115.583  0.00  0.00     0.006 C 
ENDBRANCH   8   9
BRANCH   8  11
ATOM     11  C   LIG d   1      -5.565  90.438 116.488  0.00  0.00     0.028 C 
ATOM     12  C   LIG d   1      -4.228  89.692 116.358  0.00  0.00     0.006 C 
ENDBRANCH   8  11
ENDBRANCH   7   8
ENDBRANCH   1   7
BRANCH   6  13
ATOM     13  N   LIG d   1      -3.660  92.642 118.339  0.00  0.00    -0.311 N 
ATOM     14  C   LIG d   1      -2.391  93.025 118.203  0.00  0.00     0.210 C 
ATOM     15  C   LIG d   1      -1.363  91.892 118.268  0.00  0.00     0.109 C 
ATOM     16  O   LIG d   1      -2.018  94.200 118.067  0.00  0.00    -0.276 OA
ATOM     17  H   LIG d   1      -3.870  91.673 118.478  0.00  0.00     0.149 HD
ENDBRANCH   6  13
BRANCH   5  18
ATOM     18  N   LIG d   1      -4.226  94.820 120.406  0.00  0.00     0.381 N 
ATOM     19  H   LIG d   1      -4.461  94.886 121.376  0.00  0.00    -0.090 HD
ATOM     20  H   LIG d   1      -4.197  95.749 120.024  0.00  0.00    -0.090 HD
ATOM     21  H   LIG d   1      -3.337  94.383 120.301  0.00  0.00    -0.090 HD
ENDBRANCH   5  18
BRANCH   3  22
ATOM     22  C   LIG d   1      -8.822  94.691 119.066  0.00  0.00     0.382 C 
ATOM     23  O   LIG d   1      -9.464  94.037 119.923  0.00  0.00    -0.241 OA
ATOM     24  O   LIG d   1      -9.388  95.610 118.445  0.00  0.00    -0.241 OA
ENDBRANCH   3  22
TORSDOF 7
ENDMDL
MODEL 3
REMARK VINA RESULT:      -5.1     15.043     17.920
REMARK  7 active torsions:
REMARK  status: ('A' for Active; 'I' for Inactive)
REMARK    1  A    between atoms: C_2  and  C_3 
REMARK    2  A    between atoms: C_3  and  O_6 
REMARK    3  A    between atoms: C_3  and  C_4 
REMARK    4  A    between atoms: C_7  and  O_6 
REMARK    5  A    between atoms: C_9  and  C_10 
REMARK    6  A    between atoms: N_15  and  C_14 
REMARK    7  A    between atoms: N_20  and  C_19 
REMARK       I    between atoms: C_22  and  N_20 
ROOT
ATOM      1  C   LIG d   1      -4.104  74.513 116.576  0.00  0.00     0.161 C 
ATOM      2  C   LIG d   1      -5.074  73.515 116.386  0.00  0.00     0.016 C 
ATOM      3  C   LIG d   1      -6.437  73.679 116.727  0.00  0.00     0.038 C 
ATOM      4  C   LIG d   1      -6.953  74.914 117.146  0.00  0.00     0.028 C 
ATOM      5  C   LIG d   1      -5.919  75.802 117.831  0.00  0.00    -0.047 C 
ATOM      6  C   LIG d   1      -4.669  75.905 116.928  0.00  0.00     0.091 C 
ENDROOT
BRANCH   1   7
ATOM      7  O   LIG d   1      -3.254  74.595 115.415  0.00  0.00    -0.368 OA
BRANCH   7   8
ATOM      8  C   LIG d   1      -1.850  74.310 115.631  0.00  0.00     0.119 C 
BRANCH   8   9
ATOM      9  C   LIG d   1      -1.693  73.841 117.091  0.00  0.00     0.028 C 
ATOM     10  C   LIG d   1      -0.555  74.572 117.822  0.00  0.00     0.006 C 
ENDBRANCH   8   9
BRANCH   8  11
ATOM     11  C   LIG d   1      -1.000  75.578 115.519  0.00  0.00     0.028 C 
ATOM     12  C   LIG d   1      -1.600  76.615 114.555  0.00  0.00     0.006 C 
ENDBRANCH   8  11
ENDBRANCH   7   8
ENDBRANCH   1   7
BRANCH   6  13
ATOM     13  N   LIG d   1      -3.575  76.687 117.561  0.00  0.00    -0.311 N 
ATOM     14  C   LIG d   1      -3.404  77.994 117.371  0.00  0.00     0.210 C 
ATOM     15  C   LIG d   1      -2.202  78.602 118.101  0.00  0.00     0.109 C 
ATOM     16  O   LIG d   1      -4.151  78.714 116.692  0.00  0.00    -0.276 OA
ATOM     17  H   LIG d   1      -2.941  76.188 118.152  0.00  0.00     0.149 HD
ENDBRANCH   6  13
BRANCH   5  18
ATOM     18  N   LIG d   1      -6.555  77.107 118.090  0.00  0.00     0.381 N 
ATOM     19  H   LIG d   1      -7.107  77.056 118.923  0.00  0.00    -0.090 HD
ATOM     20  H   LIG d   1      -7.162  77.331 117.322  0.00  0.00    -0.090 HD
ATOM     21  H   LIG d   1      -5.857  77.812 118.188  0.00  0.00    -0.090 HD
ENDBRANCH   5  18
BRANCH   3  22
ATOM     22  C   LIG d   1      -7.291  72.587 116.690  0.00  0.00     0.382 C 
ATOM     23  O   LIG d   1      -6.977  71.568 116.027  0.00  0.00    -0.241 OA
ATOM     24  O   LIG d   1      -8.390  72.624 117.274  0.00  0.00    -0.241 OA
ENDBRANCH   3  22
TORSDOF 7
ENDMDL
MODEL 4
REMARK VINA RESULT:      -5.1      2.083      4.351
REMARK  7 active torsions:
REMARK  status: ('A' for Active; 'I' for Inactive)
REMARK    1  A    between atoms: C_2  and  C_3 
REMARK    2  A    between atoms: C_3  and  O_6 
REMARK    3  A    between atoms: C_3  and  C_4 
REMARK    4  A    between atoms: C_7  and  O_6 
REMARK    5  A    between atoms: C_9  and  C_10 
REMARK    6  A    between atoms: N_15  and  C_14 
REMARK    7  A    between atoms: N_20  and  C_19 
REMARK       I    between atoms: C_22  and  N_20 
ROOT
ATOM      1  C   LIG d   1      -4.391  92.505 117.854  0.00  0.00     0.161 C 
ATOM      2  C   LIG d   1      -4.579  91.544 116.847  0.00  0.00     0.016 C 
ATOM      3  C   LIG d   1      -5.805  91.358 116.168  0.00  0.00     0.038 C 
ATOM      4  C   LIG d   1      -6.891  92.228 116.347  0.00  0.00     0.028 C 
ATOM      5  C   LIG d   1      -6.912  92.897 117.717  0.00  0.00    -0.047 C 
ATOM      6  C   LIG d   1      -5.531  93.537 117.985  0.00  0.00     0.091 C 
ENDROOT
BRANCH   1   7
ATOM      7  O   LIG d   1      -3.129  93.174 117.661  0.00  0.00    -0.368 OA
BRANCH   7   8
ATOM      8  C   LIG d   1      -1.977  92.556 118.287  0.00  0.00     0.119 C 
BRANCH   8   9
ATOM      9  C   LIG d   1      -2.316  92.348 119.776  0.00  0.00     0.028 C 
ATOM     10  C   LIG d   1      -2.082  93.615 120.614  0.00  0.00     0.006 C 
ENDBRANCH   8   9
BRANCH   8  11
ATOM     11  C   LIG d   1      -0.766  93.493 118.274  0.00  0.00     0.028 C 
ATOM     12  C   LIG d   1      -0.908  94.637 117.257  0.00  0.00     0.006 C 
ENDBRANCH   8  11
ENDBRANCH   7   8
ENDBRANCH   1   7
BRANCH   6  13
ATOM     13  N   LIG d   1      -5.438  94.140 119.340  0.00  0.00    -0.311 N 
ATOM     14  C   LIG d   1      -5.689  95.424 119.589  0.00  0.00     0.210 C 
ATOM     15  C   LIG d   1      -5.515  95.844 121.052  0.00  0.00     0.109 C 
ATOM     16  O   LIG d   1      -6.070  96.247 118.744  0.00  0.00    -0.276 OA
ATOM     17  H   LIG d   1      -5.166  93.536 120.090  0.00  0.00     0.149 HD
ENDBRANCH   6  13
BRANCH   5  18
ATOM     18  N   LIG d   1      -8.014  93.878 117.717  0.00  0.00     0.381 N 
ATOM     19  H   LIG d   1      -8.213  94.163 116.780  0.00  0.00    -0.090 HD
ATOM     20  H   LIG d   1      -7.728  94.687 118.240  0.00  0.00    -0.090 HD
ATOM     21  H   LIG d   1      -8.827  93.477 118.130  0.00  0.00    -0.090 HD
ENDBRANCH   5  18
BRANCH   3  22
ATOM     22  C   LIG d   1      -5.967  90.267 115.328  0.00  0.00     0.382 C 
ATOM     23  O   LIG d   1      -7.042  90.113 114.699  0.00  0.00    -0.241 OA
ATOM     24  O   LIG d   1      -5.068  89.410 115.225  0.00  0.00    -0.241 OA
ENDBRANCH   3  22
TORSDOF 7
ENDMDL
MODEL 5
REMARK VINA RESULT:      -5.0      2.276      4.622
REMARK  7 active torsions:
REMARK  status: ('A' for Active; 'I' for Inactive)
REMARK    1  A    between atoms: C_2  and  C_3 
REMARK    2  A    between atoms: C_3  and  O_6 
REMARK    3  A    between atoms: C_3  and  C_4 
REMARK    4  A    between atoms: C_7  and  O_6 
REMARK    5  A    between atoms: C_9  and  C_10 
REMARK    6  A    between atoms: N_15  and  C_14 
REMARK    7  A    between atoms: N_20  and  C_19 
REMARK       I    between atoms: C_22  and  N_20 
ROOT
ATOM      1  C   LIG d   1      -4.135  90.927 117.721  0.00  0.00     0.161 C 
ATOM      2  C   LIG d   1      -5.199  90.285 117.066  0.00  0.00     0.016 C 
ATOM      3  C   LIG d   1      -6.414  90.930 116.738  0.00  0.00     0.038 C 
ATOM      4  C   LIG d   1      -6.590  92.311 116.910  0.00  0.00     0.028 C 
ATOM      5  C   LIG d   1      -5.733  92.896 118.027  0.00  0.00    -0.047 C 
ATOM      6  C   LIG d   1      -4.265  92.461 117.815  0.00  0.00     0.091 C 
ENDROOT
BRANCH   1   7
ATOM      7  O   LIG d   1      -2.888  90.567 117.093  0.00  0.00    -0.368 OA
BRANCH   7   8
ATOM      8  C   LIG d   1      -1.916  89.906 117.940  0.00  0.00     0.119 C 
BRANCH   8   9
ATOM      9  C   LIG d   1      -0.521  90.415 117.530  0.00  0.00     0.028 C 
ATOM     10  C   LIG d   1       0.547  90.127 118.598  0.00  0.00     0.006 C 
ENDBRANCH   8   9
BRANCH   8  11
ATOM     11  C   LIG d   1      -1.889  88.396 117.682  0.00  0.00     0.028 C 
ATOM     12  C   LIG d   1      -2.134  87.569 118.954  0.00  0.00     0.006 C 
ENDBRANCH   8  11
ENDBRANCH   7   8
ENDBRANCH   1   7
BRANCH   6  13
ATOM     13  N   LIG d   1      -3.374  92.921 118.912  0.00  0.00    -0.311 N 
ATOM     14  C   LIG d   1      -2.251  93.607 118.704  0.00  0.00     0.210 C 
ATOM     15  C   LIG d   1      -1.469  93.966 119.972  0.00  0.00     0.109 C 
ATOM     16  O   LIG d   1      -1.844  93.979 117.593  0.00  0.00    -0.276 OA
ATOM     17  H   LIG d   1      -3.644  92.689 119.847  0.00  0.00     0.149 HD
ENDBRANCH   6  13
BRANCH   5  18
ATOM     18  N   LIG d   1      -5.911  94.361 118.005  0.00  0.00     0.381 N 
ATOM     19  H   LIG d   1      -6.886  94.583 117.967  0.00  0.00    -0.090 HD
ATOM     20  H   LIG d   1      -5.471  94.729 117.180  0.00  0.00    -0.090 HD
ATOM     21  H   LIG d   1      -5.502  94.766 118.818  0.00  0.00    -0.090 HD
ENDBRANCH   5  18
BRANCH   3  22
ATOM     22  C   LIG d   1      -7.484  90.183 116.270  0.00  0.00     0.382 C 
ATOM     23  O   LIG d   1      -7.692  89.032 116.724  0.00  0.00    -0.241 OA
ATOM     24  O   LIG d   1      -8.218  90.628 115.367  0.00  0.00    -0.241 OA
ENDBRANCH   3  22
TORSDOF 7
ENDMDL
MODEL 6
REMARK VINA RESULT:      -5.0     14.238     17.230
REMARK  7 active torsions:
REMARK  status: ('A' for Active; 'I' for Inactive)
REMARK    1  A    between atoms: C_2  and  C_3 
REMARK    2  A    between atoms: C_3  and  O_6 
REMARK    3  A    between atoms: C_3  and  C_4 
REMARK    4  A    between atoms: C_7  and  O_6 
REMARK    5  A    between atoms: C_9  and  C_10 
REMARK    6  A    between atoms: N_15  and  C_14 
REMARK    7  A    between atoms: N_20  and  C_19 
REMARK       I    between atoms: C_22  and  N_20 
ROOT
ATOM      1  C   LIG d   1      -4.347  75.774 118.112  0.00  0.00     0.161 C 
ATOM      2  C   LIG d   1      -5.460  76.617 117.962  0.00  0.00     0.016 C 
ATOM      3  C   LIG d   1      -5.358  77.995 117.659  0.00  0.00     0.038 C 
ATOM      4  C   LIG d   1      -4.132  78.594 117.335  0.00  0.00     0.028 C 
ATOM      5  C   LIG d   1      -2.932  77.897 117.967  0.00  0.00    -0.047 C 
ATOM      6  C   LIG d   1      -3.006  76.385 117.653  0.00  0.00     0.091 C 
ENDROOT
BRANCH   1   7
ATOM      7  O   LIG d   1      -4.586  74.524 117.436  0.00  0.00    -0.368 OA
BRANCH   7   8
ATOM      8  C   LIG d   1      -5.922  74.329 116.910  0.00  0.00     0.119 C 
BRANCH   8   9
ATOM      9  C   LIG d   1      -6.510  73.080 117.593  0.00  0.00     0.028 C 
ATOM     10  C   LIG d   1      -7.322  72.207 116.621  0.00  0.00     0.006 C 
ENDBRANCH   8   9
BRANCH   8  11
ATOM     11  C   LIG d   1      -5.889  73.997 115.415  0.00  0.00     0.028 C 
ATOM     12  C   LIG d   1      -4.887  74.862 114.634  0.00  0.00     0.006 C 
ENDBRANCH   8  11
ENDBRANCH   7   8
ENDBRANCH   1   7
BRANCH   6  13
ATOM     13  N   LIG d   1      -1.915  75.616 118.306  0.00  0.00    -0.311 N 
ATOM     14  C   LIG d   1      -1.189  74.694 117.675  0.00  0.00     0.210 C 
ATOM     15  C   LIG d   1      -0.127  74.005 118.538  0.00  0.00     0.109 C 
ATOM     16  O   LIG d   1      -1.302  74.405 116.474  0.00  0.00    -0.276 OA
ATOM     17  H   LIG d   1      -1.734  75.810 119.271  0.00  0.00     0.149 HD
ENDBRANCH   6  13
BRANCH   5  18
ATOM     18  N   LIG d   1      -1.714  78.538 117.437  0.00  0.00     0.381 N 
ATOM     19  H   LIG d   1      -1.945  79.100 116.642  0.00  0.00    -0.090 HD
ATOM     20  H   LIG d   1      -1.073  77.823 117.141  0.00  0.00    -0.090 HD
ATOM     21  H   LIG d   1      -1.291  79.103 118.140  0.00  0.00    -0.090 HD
ENDBRANCH   5  18
BRANCH   3  22
ATOM     22  C   LIG d   1      -6.488  78.797 117.717  0.00  0.00     0.382 C 
ATOM     23  O   LIG d   1      -7.583  78.312 118.092  0.00  0.00    -0.241 OA
ATOM     24  O   LIG d   1      -6.436  79.988 117.358  0.00  0.00    -0.241 OA
ENDBRANCH   3  22
TORSDOF 7
ENDMDL
MODEL 7
REMARK VINA RESULT:      -5.0      1.250      1.965
REMARK  7 active torsions:
REMARK  status: ('A' for Active; 'I' for Inactive)
REMARK    1  A    between atoms: C_2  and  C_3 
REMARK    2  A    between atoms: C_3  and  O_6 
REMARK    3  A    between atoms: C_3  and  C_4 
REMARK    4  A    between atoms: C_7  and  O_6 
REMARK    5  A    between atoms: C_9  and  C_10 
REMARK    6  A    between atoms: N_15  and  C_14 
REMARK    7  A    between atoms: N_20  and  C_19 
REMARK       I    between atoms: C_22  and  N_20 
ROOT
ATOM      1  C   LIG d   1      -5.788  93.047 118.543  0.00  0.00     0.161 C 
ATOM      2  C   LIG d   1      -6.620  92.030 118.045  0.00  0.00     0.016 C 
ATOM      3  C   LIG d   1      -6.131  90.878 117.386  0.00  0.00     0.038 C 
ATOM      4  C   LIG d   1      -4.760  90.591 117.314  0.00  0.00     0.028 C 
ATOM      5  C   LIG d   1      -3.877  91.835 117.357  0.00  0.00    -0.047 C 
ATOM      6  C   LIG d   1      -4.286  92.698 118.573  0.00  0.00     0.091 C 
ENDROOT
BRANCH   1   7
ATOM      7  O   LIG d   1      -6.236  93.445 119.854  0.00  0.00    -0.368 OA
BRANCH   7   8
ATOM      8  C   LIG d   1      -6.849  94.755 119.948  0.00  0.00     0.119 C 
BRANCH   8   9
ATOM      9  C   LIG d   1      -8.377  94.553 119.915  0.00  0.00     0.028 C 
ATOM     10  C   LIG d   1      -9.034  95.248 118.710  0.00  0.00     0.006 C 
ENDBRANCH   8   9
BRANCH   8  11
ATOM     11  C   LIG d   1      -6.526  95.610 118.720  0.00  0.00     0.028 C 
ATOM     12  C   LIG d   1      -5.655  96.831 119.056  0.00  0.00     0.006 C 
ENDBRANCH   8  11
ENDBRANCH   7   8
ENDBRANCH   1   7
BRANCH   6  13
ATOM     13  N   LIG d   1      -3.528  93.975 118.641  0.00  0.00    -0.311 N 
ATOM     14  C   LIG d   1      -2.426  94.135 119.370  0.00  0.00     0.210 C 
ATOM     15  C   LIG d   1      -1.812  95.538 119.315  0.00  0.00     0.109 C 
ATOM     16  O   LIG d   1      -1.879  93.240 120.033  0.00  0.00    -0.276 OA
ATOM     17  H   LIG d   1      -3.884  94.745 118.109  0.00  0.00     0.149 HD
ENDBRANCH   6  13
BRANCH   5  18
ATOM     18  N   LIG d   1      -2.474  91.383 117.413  0.00  0.00     0.381 N 
ATOM     19  H   LIG d   1      -2.337  90.624 116.777  0.00  0.00    -0.090 HD
ATOM     20  H   LIG d   1      -2.275  91.057 118.342  0.00  0.00    -0.090 HD
ATOM     21  H   LIG d   1      -1.864  92.136 117.180  0.00  0.00    -0.090 HD
ENDBRANCH   5  18
BRANCH   3  22
ATOM     22  C   LIG d   1      -7.018  90.019 116.755  0.00  0.00     0.382 C 
ATOM     23  O   LIG d   1      -6.685  89.448 115.689  0.00  0.00    -0.241 OA
ATOM     24  O   LIG d   1      -8.162  89.843 117.215  0.00  0.00    -0.241 OA
ENDBRANCH   3  22
TORSDOF 7
ENDMDL
MODEL 8
REMARK VINA RESULT:      -4.9     13.838     16.913
REMARK  7 active torsions:
REMARK  status: ('A' for Active; 'I' for Inactive)
REMARK    1  A    between atoms: C_2  and  C_3 
REMARK    2  A    between atoms: C_3  and  O_6 
REMARK    3  A    between atoms: C_3  and  C_4 
REMARK    4  A    between atoms: C_7  and  O_6 
REMARK    5  A    between atoms: C_9  and  C_10 
REMARK    6  A    between atoms: N_15  and  C_14 
REMARK    7  A    between atoms: N_20  and  C_19 
REMARK       I    between atoms: C_22  and  N_20 
ROOT
ATOM      1  C   LIG d   1      -5.785  76.315 117.559  0.00  0.00     0.161 C 
ATOM      2  C   LIG d   1      -6.700  77.372 117.700  0.00  0.00     0.016 C 
ATOM      3  C   LIG d   1      -6.313  78.728 117.807  0.00  0.00     0.038 C 
ATOM      4  C   LIG d   1      -4.983  79.135 117.626  0.00  0.00     0.028 C 
ATOM      5  C   LIG d   1      -3.965  78.058 117.984  0.00  0.00    -0.047 C 
ATOM      6  C   LIG d   1      -4.338  76.751 117.248  0.00  0.00     0.091 C 
ENDROOT
BRANCH   1   7
ATOM      7  O   LIG d   1      -6.257  75.392 116.558  0.00  0.00    -0.368 OA
BRANCH   7   8
ATOM      8  C   LIG d   1      -6.276  73.994 116.939  0.00  0.00     0.119 C 
BRANCH   8   9
ATOM      9  C   LIG d   1      -5.794  73.177 115.725  0.00  0.00     0.028 C 
ATOM     10  C   LIG d   1      -5.097  74.050 114.668  0.00  0.00     0.006 C 
ENDBRANCH   8   9
BRANCH   8  11
ATOM     11  C   LIG d   1      -7.704  73.511 117.211  0.00  0.00     0.028 C 
ATOM     12  C   LIG d   1      -7.932  72.053 116.782  0.00  0.00     0.006 C 
ENDBRANCH   8  11
ENDBRANCH   7   8
ENDBRANCH   1   7
BRANCH   6  13
ATOM     13  N   LIG d   1      -3.441  75.621 117.608  0.00  0.00    -0.311 N 
ATOM     14  C   LIG d   1      -2.374  75.275 116.891  0.00  0.00     0.210 C 
ATOM     15  C   LIG d   1      -1.598  74.069 117.428  0.00  0.00     0.109 C 
ATOM     16  O   LIG d   1      -1.978  75.873 115.879  0.00  0.00    -0.276 OA
ATOM     17  H   LIG d   1      -3.671  75.102 118.432  0.00  0.00     0.149 HD
ENDBRANCH   6  13
BRANCH   5  18
ATOM     18  N   LIG d   1      -2.630  78.567 117.618  0.00  0.00     0.381 N 
ATOM     19  H   LIG d   1      -2.166  77.907 117.026  0.00  0.00    -0.090 HD
ATOM     20  H   LIG d   1      -2.084  78.678 118.454  0.00  0.00    -0.090 HD
ATOM     21  H   LIG d   1      -2.715  79.442 117.149  0.00  0.00    -0.090 HD
ENDBRANCH   5  18
BRANCH   3  22
ATOM     22  C   LIG d   1      -7.257  79.688 118.137  0.00  0.00     0.382 C 
ATOM     23  O   LIG d   1      -6.936  80.901 118.160  0.00  0.00    -0.241 OA
ATOM     24  O   LIG d   1      -8.414  79.353 118.456  0.00  0.00    -0.241 OA
ENDBRANCH   3  22
TORSDOF 7
ENDMDL
MODEL 9
REMARK VINA RESULT:      -4.5      2.809      5.292
REMARK  7 active torsions:
REMARK  status: ('A' for Active; 'I' for Inactive)
REMARK    1  A    between atoms: C_2  and  C_3 
REMARK    2  A    between atoms: C_3  and  O_6 
REMARK    3  A    between atoms: C_3  and  C_4 
REMARK    4  A    between atoms: C_7  and  O_6 
REMARK    5  A    between atoms: C_9  and  C_10 
REMARK    6  A    between atoms: N_15  and  C_14 
REMARK    7  A    between atoms: N_20  and  C_19 
REMARK       I    between atoms: C_22  and  N_20 
ROOT
ATOM      1  C   LIG d   1      -3.119  91.234 117.987  0.00  0.00     0.161 C 
ATOM      2  C   LIG d   1      -3.637  90.408 116.976  0.00  0.00     0.016 C 
ATOM      3  C   LIG d   1      -4.808  90.714 116.245  0.00  0.00     0.038 C 
ATOM      4  C   LIG d   1      -5.461  91.949 116.373  0.00  0.00     0.028 C 
ATOM      5  C   LIG d   1      -5.265  92.599 117.739  0.00  0.00    -0.047 C 
ATOM      6  C   LIG d   1      -3.755  92.638 118.064  0.00  0.00     0.091 C 
ENDROOT
BRANCH   1   7
ATOM      7  O   LIG d   1      -1.688  91.338 117.848  0.00  0.00    -0.368 OA
BRANCH   7   8
ATOM      8  C   LIG d   1      -0.993  90.120 117.486  0.00  0.00     0.119 C 
BRANCH   8   9
ATOM      9  C   LIG d   1      -0.718  89.340 118.786  0.00  0.00     0.028 C 
ATOM     10  C   LIG d   1      -1.466  87.998 118.835  0.00  0.00     0.006 C 
ENDBRANCH   8   9
BRANCH   8  11
ATOM     11  C   LIG d   1       0.387  90.421 116.894  0.00  0.00     0.028 C 
ATOM     12  C   LIG d   1       1.121  89.157 116.419  0.00  0.00     0.006 C 
ENDBRANCH   8  11
ENDBRANCH   7   8
ENDBRANCH   1   7
BRANCH   6  13
ATOM     13  N   LIG d   1      -3.481  93.182 119.420  0.00  0.00    -0.311 N 
ATOM     14  C   LIG d   1      -2.698  94.236 119.643  0.00  0.00     0.210 C 
ATOM     15  C   LIG d   1      -2.533  94.620 121.116  0.00  0.00     0.109 C 
ATOM     16  O   LIG d   1      -2.150  94.910 118.757  0.00  0.00    -0.276 OA
ATOM     17  H   LIG d   1      -3.911  92.715 120.194  0.00  0.00     0.149 HD
ENDBRANCH   6  13
BRANCH   5  18
ATOM     18  N   LIG d   1      -5.881  93.938 117.687  0.00  0.00     0.381 N 
ATOM     19  H   LIG d   1      -5.488  94.463 116.932  0.00  0.00    -0.090 HD
ATOM     20  H   LIG d   1      -5.679  94.421 118.545  0.00  0.00    -0.090 HD
ATOM     21  H   LIG d   1      -6.866  93.856 117.567  0.00  0.00    -0.090 HD
ENDBRANCH   5  18
BRANCH   3  22
ATOM     22  C   LIG d   1      -5.361  89.761 115.402  0.00  0.00     0.382 C 
ATOM     23  O   LIG d   1      -6.599  89.743 115.204  0.00  0.00    -0.241 OA
ATOM     24  O   LIG d   1      -4.642  88.892 114.874  0.00  0.00    -0.241 OA
ENDBRANCH   3  22
TORSDOF 7
ENDMDL
