MODEL 1
REMARK VINA RESULT:      -5.7      0.000      0.000
REMARK  7 active torsions:
REMARK  status: ('A' for Active; 'I' for Inactive)
REMARK    1  A    between atoms: C_2  and  C_3 
REMARK    2  A    between atoms: C_3  and  O_6 
REMARK    3  A    between atoms: C_3  and  C_4 
REMARK    4  A    between atoms: C_7  and  O_6 
REMARK    5  A    between atoms: C_9  and  C_10 
REMARK    6  A    between atoms: N_15  and  C_14 
REMARK    7  A    between atoms: N_20  and  C_19 
REMARK       I    between atoms: C_22  and  N_20 
ROOT
ATOM      1  C   LIG d   1      -4.068  91.962 117.888  0.00  0.00     0.161 C 
ATOM      2  C   LIG d   1      -4.413  91.196 116.762  0.00  0.00     0.016 C 
ATOM      3  C   LIG d   1      -5.678  91.262 116.134  0.00  0.00     0.038 C 
ATOM      4  C   LIG d   1      -6.639  92.216 116.500  0.00  0.00     0.028 C 
ATOM      5  C   LIG d   1      -6.524  92.664 117.953  0.00  0.00    -0.047 C 
ATOM      6  C   LIG d   1      -5.064  93.089 118.233  0.00  0.00     0.091 C 
ENDROOT
BRANCH   1   7
ATOM      7  O   LIG d   1      -2.740  92.500 117.725  0.00  0.00    -0.368 OA
BRANCH   7   8
ATOM      8  C   LIG d   1      -1.647  91.618 118.082  0.00  0.00     0.119 C 
BRANCH   8   9
ATOM      9  C   LIG d   1      -1.946  91.054 119.484  0.00  0.00     0.028 C 
ATOM     10  C   LIG d   1      -1.612  92.056 120.603  0.00  0.00     0.006 C 
ENDBRANCH   8   9
BRANCH   8  11
ATOM     11  C   LIG d   1      -0.333  92.391 118.227  0.00  0.00     0.028 C 
ATOM     12  C   LIG d   1      -0.412  93.814 117.654  0.00  0.00     0.006 C 
ENDBRANCH   8  11
ENDBRANCH   7   8
ENDBRANCH   1   7
BRANCH   6  13
ATOM     13  N   LIG d   1      -4.845  93.462 119.655  0.00  0.00    -0.311 N 
ATOM     14  C   LIG d   1      -4.962  94.708 120.112  0.00  0.00     0.210 C 
ATOM     15  C   LIG d   1      -4.674  94.878 121.607  0.00  0.00     0.109 C 
ATOM     16  O   LIG d   1      -5.308  95.683 119.428  0.00  0.00    -0.276 OA
ATOM     17  H   LIG d   1      -4.591  92.727 120.286  0.00  0.00     0.149 HD
ENDBRANCH   6  13
BRANCH   5  18
ATOM     18  N   LIG d   1      -7.493  93.757 118.160  0.00  0.00     0.381 N 
ATOM     19  H   LIG d   1      -8.008  93.597 119.003  0.00  0.00    -0.090 HD
ATOM     20  H   LIG d   1      -8.141  93.767 117.392  0.00  0.00    -0.090 HD
ATOM     21  H   LIG d   1      -7.017  94.630 118.214  0.00  0.00    -0.090 HD
ENDBRANCH   5  18
BRANCH   3  22
ATOM     22  C   LIG d   1      -6.006  90.339 115.153  0.00  0.00     0.382 C 
ATOM     23  O   LIG d   1      -5.184  89.448 114.829  0.00  0.00    -0.241 OA
ATOM     24  O   LIG d   1      -7.097  90.413 114.556  0.00  0.00    -0.241 OA
ENDBRANCH   3  22
TORSDOF 7
ENDMDL
MODEL 2
REMARK VINA RESULT:      -5.7     32.393     33.647
REMARK  7 active torsions:
REMARK  status: ('A' for Active; 'I' for Inactive)
REMARK    1  A    between atoms: C_2  and  C_3 
REMARK    2  A    between atoms: C_3  and  O_6 
REMARK    3  A    between atoms: C_3  and  C_4 
REMARK    4  A    between atoms: C_7  and  O_6 
REMARK    5  A    between atoms: C_9  and  C_10 
REMARK    6  A    between atoms: N_15  and  C_14 
REMARK    7  A    between atoms: N_20  and  C_19 
REMARK       I    between atoms: C_22  and  N_20 
ROOT
ATOM      1  C   LIG d   1       0.975  58.909 119.279  0.00  0.00     0.161 C 
ATOM      2  C   LIG d   1       0.176  58.719 118.139  0.00  0.00     0.016 C 
ATOM      3  C   LIG d   1      -1.157  59.179 118.038  0.00  0.00     0.038 C 
ATOM      4  C   LIG d   1      -1.736  59.997 119.020  0.00  0.00     0.028 C 
ATOM      5  C   LIG d   1      -1.141  59.789 120.409  0.00  0.00    -0.047 C 
ATOM      6  C   LIG d   1       0.398  59.895 120.317  0.00  0.00     0.091 C 
ENDROOT
BRANCH   1   7
ATOM      7  O   LIG d   1       2.300  59.315 118.885  0.00  0.00    -0.368 OA
BRANCH   7   8
ATOM      8  C   LIG d   1       3.385  58.459 119.322  0.00  0.00     0.119 C 
BRANCH   8   9
ATOM      9  C   LIG d   1       4.344  59.322 120.166  0.00  0.00     0.028 C 
ATOM     10  C   LIG d   1       4.658  58.686 121.531  0.00  0.00     0.006 C 
ENDBRANCH   8   9
BRANCH   8  11
ATOM     11  C   LIG d   1       4.220  57.967 118.136  0.00  0.00     0.028 C 
ATOM     12  C   LIG d   1       3.834  56.551 117.683  0.00  0.00     0.006 C 
ENDBRANCH   8  11
ENDBRANCH   7   8
ENDBRANCH   1   7
BRANCH   6  13
ATOM     13  N   LIG d   1       1.064  59.621 121.617  0.00  0.00    -0.311 N 
ATOM     14  C   LIG d   1       1.238  60.545 122.560  0.00  0.00     0.210 C 
ATOM     15  C   LIG d   1       1.966  60.056 123.817  0.00  0.00     0.109 C 
ATOM     16  O   LIG d   1       0.829  61.713 122.490  0.00  0.00    -0.276 OA
ATOM     17  H   LIG d   1       1.398  58.690 121.771  0.00  0.00     0.149 HD
ENDBRANCH   6  13
BRANCH   5  18
ATOM     18  N   LIG d   1      -1.738  60.799 121.304  0.00  0.00     0.381 N 
ATOM     19  H   LIG d   1      -1.509  61.717 120.979  0.00  0.00    -0.090 HD
ATOM     20  H   LIG d   1      -1.352  60.685 122.225  0.00  0.00    -0.090 HD
ATOM     21  H   LIG d   1      -2.727  60.686 121.334  0.00  0.00    -0.090 HD
ENDBRANCH   5  18
BRANCH   3  22
ATOM     22  C   LIG d   1      -1.939  58.787 116.963  0.00  0.00     0.382 C 
ATOM     23  O   LIG d   1      -2.045  59.532 115.959  0.00  0.00    -0.241 OA
ATOM     24  O   LIG d   1      -2.577  57.717 117.002  0.00  0.00    -0.241 OA
ENDBRANCH   3  22
TORSDOF 7
ENDMDL
MODEL 3
REMARK VINA RESULT:      -5.6     33.115     35.089
REMARK  7 active torsions:
REMARK  status: ('A' for Active; 'I' for Inactive)
REMARK    1  A    between atoms: C_2  and  C_3 
REMARK    2  A    between atoms: C_3  and  O_6 
REMARK    3  A    between atoms: C_3  and  C_4 
REMARK    4  A    between atoms: C_7  and  O_6 
REMARK    5  A    between atoms: C_9  and  C_10 
REMARK    6  A    between atoms: N_15  and  C_14 
REMARK    7  A    between atoms: N_20  and  C_19 
REMARK       I    between atoms: C_22  and  N_20 
ROOT
ATOM      1  C   LIG d   1       0.868  57.926 118.584  0.00  0.00     0.161 C 
ATOM      2  C   LIG d   1       1.276  58.621 119.734  0.00  0.00     0.016 C 
ATOM      3  C   LIG d   1       2.565  59.182 119.888  0.00  0.00     0.038 C 
ATOM      4  C   LIG d   1       3.489  59.216 118.833  0.00  0.00     0.028 C 
ATOM      5  C   LIG d   1       3.304  58.084 117.828  0.00  0.00    -0.047 C 
ATOM      6  C   LIG d   1       1.825  58.049 117.380  0.00  0.00     0.091 C 
ENDROOT
BRANCH   1   7
ATOM      7  O   LIG d   1      -0.462  58.337 118.211  0.00  0.00    -0.368 OA
BRANCH   7   8
ATOM      8  C   LIG d   1      -0.550  59.413 117.245  0.00  0.00     0.119 C 
BRANCH   8   9
ATOM      9  C   LIG d   1      -1.366  60.550 117.891  0.00  0.00     0.028 C 
ATOM     10  C   LIG d   1      -1.882  60.179 119.291  0.00  0.00     0.006 C 
ENDBRANCH   8   9
BRANCH   8  11
ATOM     11  C   LIG d   1      -1.350  58.990 116.010  0.00  0.00     0.028 C 
ATOM     12  C   LIG d   1      -2.138  57.689 116.228  0.00  0.00     0.006 C 
ENDBRANCH   8  11
ENDBRANCH   7   8
ENDBRANCH   1   7
BRANCH   6  13
ATOM     13  N   LIG d   1       1.538  56.917 116.460  0.00  0.00    -0.311 N 
ATOM     14  C   LIG d   1       1.521  55.643 116.848  0.00  0.00     0.210 C 
ATOM     15  C   LIG d   1       1.223  54.632 115.736  0.00  0.00     0.109 C 
ATOM     16  O   LIG d   1       1.692  55.257 118.014  0.00  0.00    -0.276 OA
ATOM     17  H   LIG d   1       1.357  57.143 115.502  0.00  0.00     0.149 HD
ENDBRANCH   6  13
BRANCH   5  18
ATOM     18  N   LIG d   1       4.240  58.319 116.713  0.00  0.00     0.381 N 
ATOM     19  H   LIG d   1       3.973  59.144 116.215  0.00  0.00    -0.090 HD
ATOM     20  H   LIG d   1       4.195  57.540 116.081  0.00  0.00    -0.090 HD
ATOM     21  H   LIG d   1       5.168  58.419 117.063  0.00  0.00    -0.090 HD
ENDBRANCH   5  18
BRANCH   3  22
ATOM     22  C   LIG d   1       2.955  59.682 121.121  0.00  0.00     0.382 C 
ATOM     23  O   LIG d   1       2.088  60.012 121.966  0.00  0.00    -0.241 OA
ATOM     24  O   LIG d   1       4.161  59.848 121.383  0.00  0.00    -0.241 OA
ENDBRANCH   3  22
TORSDOF 7
ENDMDL
MODEL 4
REMARK VINA RESULT:      -5.4      2.362      5.936
REMARK  7 active torsions:
REMARK  status: ('A' for Active; 'I' for Inactive)
REMARK    1  A    between atoms: C_2  and  C_3 
REMARK    2  A    between atoms: C_3  and  O_6 
REMARK    3  A    between atoms: C_3  and  C_4 
REMARK    4  A    between atoms: C_7  and  O_6 
REMARK    5  A    between atoms: C_9  and  C_10 
REMARK    6  A    between atoms: N_15  and  C_14 
REMARK    7  A    between atoms: N_20  and  C_19 
REMARK       I    between atoms: C_22  and  N_20 
ROOT
ATOM      1  C   LIG d   1      -5.083  92.853 118.569  0.00  0.00     0.161 C 
ATOM      2  C   LIG d   1      -3.950  93.229 119.309  0.00  0.00     0.016 C 
ATOM      3  C   LIG d   1      -2.668  92.669 119.107  0.00  0.00     0.038 C 
ATOM      4  C   LIG d   1      -2.399  91.798 118.041  0.00  0.00     0.028 C 
ATOM      5  C   LIG d   1      -3.619  91.005 117.584  0.00  0.00    -0.047 C 
ATOM      6  C   LIG d   1      -4.787  91.985 117.328  0.00  0.00     0.091 C 
ENDROOT
BRANCH   1   7
ATOM      7  O   LIG d   1      -5.833  94.025 118.193  0.00  0.00    -0.368 OA
BRANCH   7   8
ATOM      8  C   LIG d   1      -6.537  94.702 119.263  0.00  0.00     0.119 C 
BRANCH   8   9
ATOM      9  C   LIG d   1      -8.036  94.702 118.903  0.00  0.00     0.028 C 
ATOM     10  C   LIG d   1      -8.610  96.123 118.780  0.00  0.00     0.006 C 
ENDBRANCH   8   9
BRANCH   8  11
ATOM     11  C   LIG d   1      -6.140  96.179 119.345  0.00  0.00     0.028 C 
ATOM     12  C   LIG d   1      -5.296  96.500 120.588  0.00  0.00     0.006 C 
ENDBRANCH   8  11
ENDBRANCH   7   8
ENDBRANCH   1   7
BRANCH   6  13
ATOM     13  N   LIG d   1      -6.044  91.284 116.959  0.00  0.00    -0.311 N 
ATOM     14  C   LIG d   1      -6.411  91.050 115.700  0.00  0.00     0.210 C 
ATOM     15  C   LIG d   1      -7.754  90.331 115.540  0.00  0.00     0.109 C 
ATOM     16  O   LIG d   1      -5.735  91.342 114.701  0.00  0.00    -0.276 OA
ATOM     17  H   LIG d   1      -6.637  90.985 117.708  0.00  0.00     0.149 HD
ENDBRANCH   6  13
BRANCH   5  18
ATOM     18  N   LIG d   1      -3.231  90.242 116.383  0.00  0.00     0.381 N 
ATOM     19  H   LIG d   1      -2.389  90.622 115.997  0.00  0.00    -0.090 HD
ATOM     20  H   LIG d   1      -3.959  90.325 115.695  0.00  0.00    -0.090 HD
ATOM     21  H   LIG d   1      -3.094  89.283 116.618  0.00  0.00    -0.090 HD
ENDBRANCH   5  18
BRANCH   3  22
ATOM     22  C   LIG d   1      -1.646  92.950 120.001  0.00  0.00     0.382 C 
ATOM     23  O   LIG d   1      -1.754  93.918 120.793  0.00  0.00    -0.241 OA
ATOM     24  O   LIG d   1      -0.599  92.276 119.997  0.00  0.00    -0.241 OA
ENDBRANCH   3  22
TORSDOF 7
ENDMDL
MODEL 5
REMARK VINA RESULT:      -5.4     13.799     16.112
REMARK  7 active torsions:
REMARK  status: ('A' for Active; 'I' for Inactive)
REMARK    1  A    between atoms: C_2  and  C_3 
REMARK    2  A    between atoms: C_3  and  O_6 
REMARK    3  A    between atoms: C_3  and  C_4 
REMARK    4  A    between atoms: C_7  and  O_6 
REMARK    5  A    between atoms: C_9  and  C_10 
REMARK    6  A    between atoms: N_15  and  C_14 
REMARK    7  A    between atoms: N_20  and  C_19 
REMARK       I    between atoms: C_22  and  N_20 
ROOT
ATOM      1  C   LIG d   1      -6.849  76.924 117.181  0.00  0.00     0.161 C 
ATOM      2  C   LIG d   1      -8.140  77.219 117.649  0.00  0.00     0.016 C 
ATOM      3  C   LIG d   1      -8.538  78.507 118.075  0.00  0.00     0.038 C 
ATOM      4  C   LIG d   1      -7.710  79.628 117.919  0.00  0.00     0.028 C 
ATOM      5  C   LIG d   1      -6.223  79.288 117.921  0.00  0.00    -0.047 C 
ATOM      6  C   LIG d   1      -5.966  78.158 116.898  0.00  0.00     0.091 C 
ENDROOT
BRANCH   1   7
ATOM      7  O   LIG d   1      -6.933  76.090 116.008  0.00  0.00    -0.368 OA
BRANCH   7   8
ATOM      8  C   LIG d   1      -6.390  74.752 116.138  0.00  0.00     0.119 C 
BRANCH   8   9
ATOM      9  C   LIG d   1      -5.811  74.353 114.767  0.00  0.00     0.028 C 
ATOM     10  C   LIG d   1      -4.384  74.885 114.555  0.00  0.00     0.006 C 
ENDBRANCH   8   9
BRANCH   8  11
ATOM     11  C   LIG d   1      -7.493  73.729 116.425  0.00  0.00     0.028 C 
ATOM     12  C   LIG d   1      -7.089  72.296 116.045  0.00  0.00     0.006 C 
ENDBRANCH   8  11
ENDBRANCH   7   8
ENDBRANCH   1   7
BRANCH   6  13
ATOM     13  N   LIG d   1      -4.550  77.706 116.897  0.00  0.00    -0.311 N 
ATOM     14  C   LIG d   1      -3.614  78.230 116.106  0.00  0.00     0.210 C 
ATOM     15  C   LIG d   1      -2.223  77.605 116.250  0.00  0.00     0.109 C 
ATOM     16  O   LIG d   1      -3.798  79.174 115.323  0.00  0.00    -0.276 OA
ATOM     17  H   LIG d   1      -4.307  76.965 117.525  0.00  0.00     0.149 HD
ENDBRANCH   6  13
BRANCH   5  18
ATOM     18  N   LIG d   1      -5.483  80.526 117.612  0.00  0.00     0.381 N 
ATOM     19  H   LIG d   1      -4.509  80.322 117.510  0.00  0.00    -0.090 HD
ATOM     20  H   LIG d   1      -5.592  81.169 118.376  0.00  0.00    -0.090 HD
ATOM     21  H   LIG d   1      -5.833  80.933 116.773  0.00  0.00    -0.090 HD
ENDBRANCH   5  18
BRANCH   3  22
ATOM     22  C   LIG d   1      -9.763  78.675 118.703  0.00  0.00     0.382 C 
ATOM     23  O   LIG d   1     -10.694  77.861 118.489  0.00  0.00    -0.241 OA
ATOM     24  O   LIG d   1      -9.964  79.655 119.445  0.00  0.00    -0.241 OA
ENDBRANCH   3  22
TORSDOF 7
ENDMDL
MODEL 6
REMARK VINA RESULT:      -5.4     32.843     34.473
REMARK  7 active torsions:
REMARK  status: ('A' for Active; 'I' for Inactive)
REMARK    1  A    between atoms: C_2  and  C_3 
REMARK    2  A    between atoms: C_3  and  O_6 
REMARK    3  A    between atoms: C_3  and  C_4 
REMARK    4  A    between atoms: C_7  and  O_6 
REMARK    5  A    between atoms: C_9  and  C_10 
REMARK    6  A    between atoms: N_15  and  C_14 
REMARK    7  A    between atoms: N_20  and  C_19 
REMARK       I    between atoms: C_22  and  N_20 
ROOT
ATOM      1  C   LIG d   1       1.087  58.402 118.462  0.00  0.00     0.161 C 
ATOM      2  C   LIG d   1       0.157  58.587 117.425  0.00  0.00     0.016 C 
ATOM      3  C   LIG d   1      -1.017  59.361 117.562  0.00  0.00     0.038 C 
ATOM      4  C   LIG d   1      -1.268  60.133 118.706  0.00  0.00     0.028 C 
ATOM      5  C   LIG d   1      -0.611  59.579 119.966  0.00  0.00    -0.047 C 
ATOM      6  C   LIG d   1       0.887  59.326 119.682  0.00  0.00     0.091 C 
ENDROOT
BRANCH   1   7
ATOM      7  O   LIG d   1       2.426  58.535 117.947  0.00  0.00    -0.368 OA
BRANCH   7   8
ATOM      8  C   LIG d   1       3.122  57.298 117.654  0.00  0.00     0.119 C 
BRANCH   8   9
ATOM      9  C   LIG d   1       2.314  56.151 118.289  0.00  0.00     0.028 C 
ATOM     10  C   LIG d   1       1.911  55.078 117.263  0.00  0.00     0.006 C 
ENDBRANCH   8   9
BRANCH   8  11
ATOM     11  C   LIG d   1       4.493  57.255 118.337  0.00  0.00     0.028 C 
ATOM     12  C   LIG d   1       4.552  56.240 119.489  0.00  0.00     0.006 C 
ENDBRANCH   8  11
ENDBRANCH   7   8
ENDBRANCH   1   7
BRANCH   6  13
ATOM     13  N   LIG d   1       1.587  58.704 120.836  0.00  0.00    -0.311 N 
ATOM     14  C   LIG d   1       2.834  59.011 121.190  0.00  0.00     0.210 C 
ATOM     15  C   LIG d   1       3.372  58.239 122.398  0.00  0.00     0.109 C 
ATOM     16  O   LIG d   1       3.534  59.873 120.637  0.00  0.00    -0.276 OA
ATOM     17  H   LIG d   1       1.081  58.017 121.360  0.00  0.00     0.149 HD
ENDBRANCH   6  13
BRANCH   5  18
ATOM     18  N   LIG d   1      -0.837  60.551 121.052  0.00  0.00     0.381 N 
ATOM     19  H   LIG d   1      -0.415  61.427 120.816  0.00  0.00    -0.090 HD
ATOM     20  H   LIG d   1      -0.404  60.208 121.891  0.00  0.00    -0.090 HD
ATOM     21  H   LIG d   1      -1.815  60.675 121.200  0.00  0.00    -0.090 HD
ENDBRANCH   5  18
BRANCH   3  22
ATOM     22  C   LIG d   1      -1.977  59.337 116.561  0.00  0.00     0.382 C 
ATOM     23  O   LIG d   1      -3.194  59.283 116.861  0.00  0.00    -0.241 OA
ATOM     24  O   LIG d   1      -1.639  59.325 115.362  0.00  0.00    -0.241 OA
ENDBRANCH   3  22
TORSDOF 7
ENDMDL
MODEL 7
REMARK VINA RESULT:      -5.3      2.244      4.552
REMARK  7 active torsions:
REMARK  status: ('A' for Active; 'I' for Inactive)
REMARK    1  A    between atoms: C_2  and  C_3 
REMARK    2  A    between atoms: C_3  and  O_6 
REMARK    3  A    between atoms: C_3  and  C_4 
REMARK    4  A    between atoms: C_7  and  O_6 
REMARK    5  A    between atoms: C_9  and  C_10 
REMARK    6  A    between atoms: N_15  and  C_14 
REMARK    7  A    between atoms: N_20  and  C_19 
REMARK       I    between atoms: C_22  and  N_20 
ROOT
ATOM      1  C   LIG d   1      -5.405  93.496 118.240  0.00  0.00     0.161 C 
ATOM      2  C   LIG d   1      -6.175  92.638 117.438  0.00  0.00     0.016 C 
ATOM      3  C   LIG d   1      -5.644  91.510 116.771  0.00  0.00     0.038 C 
ATOM      4  C   LIG d   1      -4.328  91.074 116.986  0.00  0.00     0.028 C 
ATOM      5  C   LIG d   1      -3.377  92.195 117.390  0.00  0.00    -0.047 C 
ATOM      6  C   LIG d   1      -3.993  92.973 118.576  0.00  0.00     0.091 C 
ENDROOT
BRANCH   1   7
ATOM      7  O   LIG d   1      -6.124  93.809 119.450  0.00  0.00    -0.368 OA
BRANCH   7   8
ATOM      8  C   LIG d   1      -7.250  94.708 119.307  0.00  0.00     0.119 C 
BRANCH   8   9
ATOM      9  C   LIG d   1      -6.693  96.087 118.902  0.00  0.00     0.028 C 
ATOM     10  C   LIG d   1      -7.807  97.100 118.586  0.00  0.00     0.006 C 
ENDBRANCH   8   9
BRANCH   8  11
ATOM     11  C   LIG d   1      -7.956  94.935 120.648  0.00  0.00     0.028 C 
ATOM     12  C   LIG d   1      -7.156  94.390 121.842  0.00  0.00     0.006 C 
ENDBRANCH   8  11
ENDBRANCH   7   8
ENDBRANCH   1   7
BRANCH   6  13
ATOM     13  N   LIG d   1      -3.165  94.139 118.980  0.00  0.00    -0.311 N 
ATOM     14  C   LIG d   1      -2.795  94.375 120.237  0.00  0.00     0.210 C 
ATOM     15  C   LIG d   1      -1.961  95.644 120.438  0.00  0.00     0.109 C 
ATOM     16  O   LIG d   1      -3.051  93.637 121.200  0.00  0.00    -0.276 OA
ATOM     17  H   LIG d   1      -2.887  94.773 118.256  0.00  0.00     0.149 HD
ENDBRANCH   6  13
BRANCH   5  18
ATOM     18  N   LIG d   1      -2.076  91.580 117.716  0.00  0.00     0.381 N 
ATOM     19  H   LIG d   1      -1.665  92.050 118.498  0.00  0.00    -0.090 HD
ATOM     20  H   LIG d   1      -1.461  91.683 116.928  0.00  0.00    -0.090 HD
ATOM     21  H   LIG d   1      -2.198  90.614 117.927  0.00  0.00    -0.090 HD
ENDBRANCH   5  18
BRANCH   3  22
ATOM     22  C   LIG d   1      -6.421  90.828 115.847  0.00  0.00     0.382 C 
ATOM     23  O   LIG d   1      -7.491  91.335 115.433  0.00  0.00    -0.241 OA
ATOM     24  O   LIG d   1      -6.088  89.693 115.456  0.00  0.00    -0.241 OA
ENDBRANCH   3  22
TORSDOF 7
ENDMDL
MODEL 8
REMARK VINA RESULT:      -5.2     32.533     33.939
REMARK  7 active torsions:
REMARK  status: ('A' for Active; 'I' for Inactive)
REMARK    1  A    between atoms: C_2  and  C_3 
REMARK    2  A    between atoms: C_3  and  O_6 
REMARK    3  A    between atoms: C_3  and  C_4 
REMARK    4  A    between atoms: C_7  and  O_6 
REMARK    5  A    between atoms: C_9  and  C_10 
REMARK    6  A    between atoms: N_15  and  C_14 
REMARK    7  A    between atoms: N_20  and  C_19 
REMARK       I    between atoms: C_22  and  N_20 
ROOT
ATOM      1  C   LIG d   1       0.885  57.975 118.160  0.00  0.00     0.161 C 
ATOM      2  C   LIG d   1      -0.261  58.395 117.465  0.00  0.00     0.016 C 
ATOM      3  C   LIG d   1      -1.166  59.359 117.966  0.00  0.00     0.038 C 
ATOM      4  C   LIG d   1      -0.903  60.083 119.139  0.00  0.00     0.028 C 
ATOM      5  C   LIG d   1      -0.016  59.334 120.128  0.00  0.00    -0.047 C 
ATOM      6  C   LIG d   1       1.247  58.835 119.390  0.00  0.00     0.091 C 
ENDROOT
BRANCH   1   7
ATOM      7  O   LIG d   1       2.004  57.898 117.256  0.00  0.00    -0.368 OA
BRANCH   7   8
ATOM      8  C   LIG d   1       2.854  59.070 117.192  0.00  0.00     0.119 C 
BRANCH   8   9
ATOM      9  C   LIG d   1       2.925  59.509 115.716  0.00  0.00     0.028 C 
ATOM     10  C   LIG d   1       1.551  59.915 115.157  0.00  0.00     0.006 C 
ENDBRANCH   8   9
BRANCH   8  11
ATOM     11  C   LIG d   1       4.295  58.735 117.586  0.00  0.00     0.028 C 
ATOM     12  C   LIG d   1       5.051  59.943 118.163  0.00  0.00     0.006 C 
ENDBRANCH   8  11
ENDBRANCH   7   8
ENDBRANCH   1   7
BRANCH   6  13
ATOM     13  N   LIG d   1       2.129  58.019 120.265  0.00  0.00    -0.311 N 
ATOM     14  C   LIG d   1       3.075  58.542 121.043  0.00  0.00     0.210 C 
ATOM     15  C   LIG d   1       3.885  57.522 121.850  0.00  0.00     0.109 C 
ATOM     16  O   LIG d   1       3.299  59.755 121.166  0.00  0.00    -0.276 OA
ATOM     17  H   LIG d   1       1.995  57.027 120.250  0.00  0.00     0.149 HD
ENDBRANCH   6  13
BRANCH   5  18
ATOM     18  N   LIG d   1       0.289  60.256 121.238  0.00  0.00     0.381 N 
ATOM     19  H   LIG d   1      -0.559  60.546 121.681  0.00  0.00    -0.090 HD
ATOM     20  H   LIG d   1       0.747  61.070 120.869  0.00  0.00    -0.090 HD
ATOM     21  H   LIG d   1       0.881  59.805 121.902  0.00  0.00    -0.090 HD
ENDBRANCH   5  18
BRANCH   3  22
ATOM     22  C   LIG d   1      -2.369  59.578 117.313  0.00  0.00     0.382 C 
ATOM     23  O   LIG d   1      -2.737  60.748 117.051  0.00  0.00    -0.241 OA
ATOM     24  O   LIG d   1      -3.113  58.622 117.021  0.00  0.00    -0.241 OA
ENDBRANCH   3  22
TORSDOF 7
ENDMDL
MODEL 9
REMARK VINA RESULT:      -5.2      2.102      4.199
REMARK  7 active torsions:
REMARK  status: ('A' for Active; 'I' for Inactive)
REMARK    1  A    between atoms: C_2  and  C_3 
REMARK    2  A    between atoms: C_3  and  O_6 
REMARK    3  A    between atoms: C_3  and  C_4 
REMARK    4  A    between atoms: C_7  and  O_6 
REMARK    5  A    between atoms: C_9  and  C_10 
REMARK    6  A    between atoms: N_15  and  C_14 
REMARK    7  A    between atoms: N_20  and  C_19 
REMARK       I    between atoms: C_22  and  N_20 
ROOT
ATOM      1  C   LIG d   1      -4.364  92.789 118.591  0.00  0.00     0.161 C 
ATOM      2  C   LIG d   1      -5.315  92.309 117.675  0.00  0.00     0.016 C 
ATOM      3  C   LIG d   1      -5.030  91.325 116.700  0.00  0.00     0.038 C 
ATOM      4  C   LIG d   1      -3.805  90.641 116.674  0.00  0.00     0.028 C 
ATOM      5  C   LIG d   1      -2.648  91.446 117.255  0.00  0.00    -0.047 C 
ATOM      6  C   LIG d   1      -3.054  91.974 118.650  0.00  0.00     0.091 C 
ENDROOT
BRANCH   1   7
ATOM      7  O   LIG d   1      -4.953  92.885 119.902  0.00  0.00    -0.368 OA
BRANCH   7   8
ATOM      8  C   LIG d   1      -5.163  94.226 120.410  0.00  0.00     0.119 C 
BRANCH   8   9
ATOM      9  C   LIG d   1      -5.042  94.163 121.945  0.00  0.00     0.028 C 
ATOM     10  C   LIG d   1      -3.693  93.586 122.404  0.00  0.00     0.006 C 
ENDBRANCH   8   9
BRANCH   8  11
ATOM     11  C   LIG d   1      -6.590  94.709 120.135  0.00  0.00     0.028 C 
ATOM     12  C   LIG d   1      -6.656  95.776 119.031  0.00  0.00     0.006 C 
ENDBRANCH   8  11
ENDBRANCH   7   8
ENDBRANCH   1   7
BRANCH   6  13
ATOM     13  N   LIG d   1      -2.011  92.843 119.253  0.00  0.00    -0.311 N 
ATOM     14  C   LIG d   1      -1.039  92.384 120.039  0.00  0.00     0.210 C 
ATOM     15  C   LIG d   1      -0.079  93.452 120.572  0.00  0.00     0.109 C 
ATOM     16  O   LIG d   1      -0.861  91.189 120.320  0.00  0.00    -0.276 OA
ATOM     17  H   LIG d   1      -2.061  93.823 119.052  0.00  0.00     0.149 HD
ENDBRANCH   6  13
BRANCH   5  18
ATOM     18  N   LIG d   1      -1.466  90.565 117.292  0.00  0.00     0.381 N 
ATOM     19  H   LIG d   1      -1.407  90.041 116.442  0.00  0.00    -0.090 HD
ATOM     20  H   LIG d   1      -1.566  89.919 118.055  0.00  0.00    -0.090 HD
ATOM     21  H   LIG d   1      -0.639  91.108 117.413  0.00  0.00    -0.090 HD
ENDBRANCH   5  18
BRANCH   3  22
ATOM     22  C   LIG d   1      -5.962  91.046 115.712  0.00  0.00     0.382 C 
ATOM     23  O   LIG d   1      -6.436  91.976 115.017  0.00  0.00    -0.241 OA
ATOM     24  O   LIG d   1      -6.368  89.881 115.538  0.00  0.00    -0.241 OA
ENDBRANCH   3  22
TORSDOF 7
ENDMDL
