MODEL 1
REMARK VINA RESULT:      -5.5      0.000      0.000
REMARK  7 active torsions:
REMARK  status: ('A' for Active; 'I' for Inactive)
REMARK    1  A    between atoms: C_2  and  C_3 
REMARK    2  A    between atoms: C_3  and  O_6 
REMARK    3  A    between atoms: C_3  and  C_4 
REMARK    4  A    between atoms: C_7  and  O_6 
REMARK    5  A    between atoms: C_9  and  C_10 
REMARK    6  A    between atoms: N_15  and  C_14 
REMARK    7  A    between atoms: N_20  and  C_19 
REMARK       I    between atoms: C_22  and  N_20 
ROOT
ATOM      1  C   LIG d   1      -1.449  60.556 119.667  0.00  0.00     0.161 C 
ATOM      2  C   LIG d   1      -0.475  60.654 120.675  0.00  0.00     0.016 C 
ATOM      3  C   LIG d   1      -0.768  60.542 122.053  0.00  0.00     0.038 C 
ATOM      4  C   LIG d   1      -2.041  60.172 122.513  0.00  0.00     0.028 C 
ATOM      5  C   LIG d   1      -3.166  60.559 121.559  0.00  0.00    -0.047 C 
ATOM      6  C   LIG d   1      -2.823  60.041 120.144  0.00  0.00     0.091 C 
ENDROOT
BRANCH   1   7
ATOM      7  O   LIG d   1      -0.954  59.738 118.588  0.00  0.00    -0.368 OA
BRANCH   7   8
ATOM      8  C   LIG d   1       0.127  58.832 118.918  0.00  0.00     0.119 C 
BRANCH   8   9
ATOM      9  C   LIG d   1       0.998  58.671 117.657  0.00  0.00     0.028 C 
ATOM     10  C   LIG d   1       1.656  57.284 117.571  0.00  0.00     0.006 C 
ENDBRANCH   8   9
BRANCH   8  11
ATOM     11  C   LIG d   1      -0.398  57.428 119.231  0.00  0.00     0.028 C 
ATOM     12  C   LIG d   1      -0.262  57.058 120.717  0.00  0.00     0.006 C 
ENDBRANCH   8  11
ENDBRANCH   7   8
ENDBRANCH   1   7
BRANCH   6  13
ATOM     13  N   LIG d   1      -3.832  60.450 119.131  0.00  0.00    -0.311 N 
ATOM     14  C   LIG d   1      -4.555  59.583 118.425  0.00  0.00     0.210 C 
ATOM     15  C   LIG d   1      -5.523  60.215 117.421  0.00  0.00     0.109 C 
ATOM     16  O   LIG d   1      -4.509  58.350 118.558  0.00  0.00    -0.276 OA
ATOM     17  H   LIG d   1      -3.956  61.432 118.982  0.00  0.00     0.149 HD
ENDBRANCH   6  13
BRANCH   5  18
ATOM     18  N   LIG d   1      -4.418  59.993 122.095  0.00  0.00     0.381 N 
ATOM     19  H   LIG d   1      -4.504  60.219 123.065  0.00  0.00    -0.090 HD
ATOM     20  H   LIG d   1      -4.387  58.992 122.005  0.00  0.00    -0.090 HD
ATOM     21  H   LIG d   1      -5.198  60.354 121.591  0.00  0.00    -0.090 HD
ENDBRANCH   5  18
BRANCH   3  22
ATOM     22  C   LIG d   1       0.210  60.841 122.990  0.00  0.00     0.382 C 
ATOM     23  O   LIG d   1      -0.049  60.758 124.215  0.00  0.00    -0.241 OA
ATOM     24  O   LIG d   1       1.333  61.237 122.626  0.00  0.00    -0.241 OA
ENDBRANCH   3  22
TORSDOF 7
ENDMDL
MODEL 2
REMARK VINA RESULT:      -5.1     32.286     33.447
REMARK  7 active torsions:
REMARK  status: ('A' for Active; 'I' for Inactive)
REMARK    1  A    between atoms: C_2  and  C_3 
REMARK    2  A    between atoms: C_3  and  O_6 
REMARK    3  A    between atoms: C_3  and  C_4 
REMARK    4  A    between atoms: C_7  and  O_6 
REMARK    5  A    between atoms: C_9  and  C_10 
REMARK    6  A    between atoms: N_15  and  C_14 
REMARK    7  A    between atoms: N_20  and  C_19 
REMARK       I    between atoms: C_22  and  N_20 
ROOT
ATOM      1  C   LIG d   1      -4.571  92.042 118.012  0.00  0.00     0.161 C 
ATOM      2  C   LIG d   1      -4.845  91.243 116.889  0.00  0.00     0.016 C 
ATOM      3  C   LIG d   1      -6.062  91.299 116.173  0.00  0.00     0.038 C 
ATOM      4  C   LIG d   1      -7.036  92.273 116.441  0.00  0.00     0.028 C 
ATOM      5  C   LIG d   1      -7.017  92.767 117.884  0.00  0.00    -0.047 C 
ATOM      6  C   LIG d   1      -5.576  93.187 118.251  0.00  0.00     0.091 C 
ENDROOT
BRANCH   1   7
ATOM      7  O   LIG d   1      -3.229  92.562 117.925  0.00  0.00    -0.368 OA
BRANCH   7   8
ATOM      8  C   LIG d   1      -2.276  92.030 118.878  0.00  0.00     0.119 C 
BRANCH   8   9
ATOM      9  C   LIG d   1      -1.717  93.218 119.685  0.00  0.00     0.028 C 
ATOM     10  C   LIG d   1      -1.982  94.569 119.001  0.00  0.00     0.006 C 
ENDBRANCH   8   9
BRANCH   8  11
ATOM     11  C   LIG d   1      -1.065  91.415 118.170  0.00  0.00     0.028 C 
ATOM     12  C   LIG d   1      -1.319  89.974 117.700  0.00  0.00     0.006 C 
ENDBRANCH   8  11
ENDBRANCH   7   8
ENDBRANCH   1   7
BRANCH   6  13
ATOM     13  N   LIG d   1      -5.452  93.604 119.673  0.00  0.00    -0.311 N 
ATOM     14  C   LIG d   1      -5.575  94.867 120.079  0.00  0.00     0.210 C 
ATOM     15  C   LIG d   1      -5.392  95.081 121.585  0.00  0.00     0.109 C 
ATOM     16  O   LIG d   1      -5.849  95.824 119.341  0.00  0.00    -0.276 OA
ATOM     17  H   LIG d   1      -5.261  92.886 120.344  0.00  0.00     0.149 HD
ENDBRANCH   6  13
BRANCH   5  18
ATOM     18  N   LIG d   1      -7.987  93.873 117.988  0.00  0.00     0.381 N 
ATOM     19  H   LIG d   1      -8.558  93.902 117.168  0.00  0.00    -0.090 HD
ATOM     20  H   LIG d   1      -7.484  94.741 118.053  0.00  0.00    -0.090 HD
ATOM     21  H   LIG d   1      -8.558  93.751 118.795  0.00  0.00    -0.090 HD
ENDBRANCH   5  18
BRANCH   3  22
ATOM     22  C   LIG d   1      -6.332  90.348 115.200  0.00  0.00     0.382 C 
ATOM     23  O   LIG d   1      -5.482  89.465 114.934  0.00  0.00    -0.241 OA
ATOM     24  O   LIG d   1      -7.397  90.389 114.555  0.00  0.00    -0.241 OA
ENDBRANCH   3  22
TORSDOF 7
ENDMDL
MODEL 3
REMARK VINA RESULT:      -4.8     32.367     33.554
REMARK  7 active torsions:
REMARK  status: ('A' for Active; 'I' for Inactive)
REMARK    1  A    between atoms: C_2  and  C_3 
REMARK    2  A    between atoms: C_3  and  O_6 
REMARK    3  A    between atoms: C_3  and  C_4 
REMARK    4  A    between atoms: C_7  and  O_6 
REMARK    5  A    between atoms: C_9  and  C_10 
REMARK    6  A    between atoms: N_15  and  C_14 
REMARK    7  A    between atoms: N_20  and  C_19 
REMARK       I    between atoms: C_22  and  N_20 
ROOT
ATOM      1  C   LIG d   1      -4.340  92.186 118.066  0.00  0.00     0.161 C 
ATOM      2  C   LIG d   1      -4.584  91.396 116.931  0.00  0.00     0.016 C 
ATOM      3  C   LIG d   1      -5.833  91.346 116.271  0.00  0.00     0.038 C 
ATOM      4  C   LIG d   1      -6.887  92.206 116.614  0.00  0.00     0.028 C 
ATOM      5  C   LIG d   1      -6.851  92.657 118.070  0.00  0.00    -0.047 C 
ATOM      6  C   LIG d   1      -5.445  93.214 118.388  0.00  0.00     0.091 C 
ENDROOT
BRANCH   1   7
ATOM      7  O   LIG d   1      -3.064  92.845 117.938  0.00  0.00    -0.368 OA
BRANCH   7   8
ATOM      8  C   LIG d   1      -1.985  92.306 118.740  0.00  0.00     0.119 C 
BRANCH   8   9
ATOM      9  C   LIG d   1      -2.602  91.301 119.731  0.00  0.00     0.028 C 
ATOM     10  C   LIG d   1      -2.075  91.490 121.164  0.00  0.00     0.006 C 
ENDBRANCH   8   9
BRANCH   8  11
ATOM     11  C   LIG d   1      -1.342  93.391 119.610  0.00  0.00     0.028 C 
ATOM     12  C   LIG d   1      -1.869  94.799 119.292  0.00  0.00     0.006 C 
ENDBRANCH   8  11
ENDBRANCH   7   8
ENDBRANCH   1   7
BRANCH   6  13
ATOM     13  N   LIG d   1      -5.297  93.600 119.816  0.00  0.00    -0.311 N 
ATOM     14  C   LIG d   1      -5.493  94.839 120.264  0.00  0.00     0.210 C 
ATOM     15  C   LIG d   1      -5.269  95.025 121.768  0.00  0.00     0.109 C 
ATOM     16  O   LIG d   1      -5.862  95.794 119.564  0.00  0.00    -0.276 OA
ATOM     17  H   LIG d   1      -5.030  92.880 120.458  0.00  0.00     0.149 HD
ENDBRANCH   6  13
BRANCH   5  18
ATOM     18  N   LIG d   1      -7.923  93.654 118.255  0.00  0.00     0.381 N 
ATOM     19  H   LIG d   1      -7.819  94.390 117.586  0.00  0.00    -0.090 HD
ATOM     20  H   LIG d   1      -7.843  94.050 119.175  0.00  0.00    -0.090 HD
ATOM     21  H   LIG d   1      -8.814  93.221 118.148  0.00  0.00    -0.090 HD
ENDBRANCH   5  18
BRANCH   3  22
ATOM     22  C   LIG d   1      -6.050  90.401 115.280  0.00  0.00     0.382 C 
ATOM     23  O   LIG d   1      -5.202  89.499 115.078  0.00  0.00    -0.241 OA
ATOM     24  O   LIG d   1      -7.062  90.465 114.556  0.00  0.00    -0.241 OA
ENDBRANCH   3  22
TORSDOF 7
ENDMDL
MODEL 4
REMARK VINA RESULT:      -4.7      2.562      3.303
REMARK  7 active torsions:
REMARK  status: ('A' for Active; 'I' for Inactive)
REMARK    1  A    between atoms: C_2  and  C_3 
REMARK    2  A    between atoms: C_3  and  O_6 
REMARK    3  A    between atoms: C_3  and  C_4 
REMARK    4  A    between atoms: C_7  and  O_6 
REMARK    5  A    between atoms: C_9  and  C_10 
REMARK    6  A    between atoms: N_15  and  C_14 
REMARK    7  A    between atoms: N_20  and  C_19 
REMARK       I    between atoms: C_22  and  N_20 
ROOT
ATOM      1  C   LIG d   1       0.539  58.640 117.929  0.00  0.00     0.161 C 
ATOM      2  C   LIG d   1       1.840  58.798 118.435  0.00  0.00     0.016 C 
ATOM      3  C   LIG d   1       2.132  59.508 119.622  0.00  0.00     0.038 C 
ATOM      4  C   LIG d   1       1.120  59.982 120.470  0.00  0.00     0.028 C 
ATOM      5  C   LIG d   1      -0.186  60.286 119.744  0.00  0.00    -0.047 C 
ATOM      6  C   LIG d   1      -0.587  59.056 118.898  0.00  0.00     0.091 C 
ENDROOT
BRANCH   1   7
ATOM      7  O   LIG d   1       0.346  57.281 117.491  0.00  0.00    -0.368 OA
BRANCH   7   8
ATOM      8  C   LIG d   1       1.177  56.281 118.131  0.00  0.00     0.119 C 
BRANCH   8   9
ATOM      9  C   LIG d   1       1.603  55.271 117.048  0.00  0.00     0.028 C 
ATOM     10  C   LIG d   1       2.970  55.613 116.432  0.00  0.00     0.006 C 
ENDBRANCH   8   9
BRANCH   8  11
ATOM     11  C   LIG d   1       0.380  55.467 119.155  0.00  0.00     0.028 C 
ATOM     12  C   LIG d   1       0.654  55.899 120.604  0.00  0.00     0.006 C 
ENDBRANCH   8  11
ENDBRANCH   7   8
ENDBRANCH   1   7
BRANCH   6  13
ATOM     13  N   LIG d   1      -1.810  59.299 118.090  0.00  0.00    -0.311 N 
ATOM     14  C   LIG d   1      -3.045  59.194 118.578  0.00  0.00     0.210 C 
ATOM     15  C   LIG d   1      -4.165  59.467 117.569  0.00  0.00     0.109 C 
ATOM     16  O   LIG d   1      -3.319  58.932 119.759  0.00  0.00    -0.276 OA
ATOM     17  H   LIG d   1      -1.680  59.547 117.129  0.00  0.00     0.149 HD
ENDBRANCH   6  13
BRANCH   5  18
ATOM     18  N   LIG d   1      -1.191  60.639 120.764  0.00  0.00     0.381 N 
ATOM     19  H   LIG d   1      -0.758  61.159 121.501  0.00  0.00    -0.090 HD
ATOM     20  H   LIG d   1      -1.570  59.794 121.154  0.00  0.00    -0.090 HD
ATOM     21  H   LIG d   1      -1.920  61.179 120.352  0.00  0.00    -0.090 HD
ENDBRANCH   5  18
BRANCH   3  22
ATOM     22  C   LIG d   1       3.450  59.783 119.951  0.00  0.00     0.382 C 
ATOM     23  O   LIG d   1       3.928  60.922 119.728  0.00  0.00    -0.241 OA
ATOM     24  O   LIG d   1       4.181  58.894 120.428  0.00  0.00    -0.241 OA
ENDBRANCH   3  22
TORSDOF 7
ENDMDL
MODEL 5
REMARK VINA RESULT:      -4.6     11.793     14.850
REMARK  7 active torsions:
REMARK  status: ('A' for Active; 'I' for Inactive)
REMARK    1  A    between atoms: C_2  and  C_3 
REMARK    2  A    between atoms: C_3  and  O_6 
REMARK    3  A    between atoms: C_3  and  C_4 
REMARK    4  A    between atoms: C_7  and  O_6 
REMARK    5  A    between atoms: C_9  and  C_10 
REMARK    6  A    between atoms: N_15  and  C_14 
REMARK    7  A    between atoms: N_20  and  C_19 
REMARK       I    between atoms: C_22  and  N_20 
ROOT
ATOM      1  C   LIG d   1     -14.771  65.478 119.770  0.00  0.00     0.161 C 
ATOM      2  C   LIG d   1     -13.696  65.553 120.672  0.00  0.00     0.016 C 
ATOM      3  C   LIG d   1     -12.762  64.508 120.859  0.00  0.00     0.038 C 
ATOM      4  C   LIG d   1     -12.752  63.367 120.042  0.00  0.00     0.028 C 
ATOM      5  C   LIG d   1     -14.121  63.025 119.462  0.00  0.00    -0.047 C 
ATOM      6  C   LIG d   1     -14.711  64.287 118.791  0.00  0.00     0.091 C 
ENDROOT
BRANCH   1   7
ATOM      7  O   LIG d   1     -14.888  66.717 119.045  0.00  0.00    -0.368 OA
BRANCH   7   8
ATOM      8  C   LIG d   1     -16.118  67.457 119.241  0.00  0.00     0.119 C 
BRANCH   8   9
ATOM      9  C   LIG d   1     -16.439  68.181 117.919  0.00  0.00     0.028 C 
ATOM     10  C   LIG d   1     -15.834  67.468 116.698  0.00  0.00     0.006 C 
ENDBRANCH   8   9
BRANCH   8  11
ATOM     11  C   LIG d   1     -15.940  68.569 120.279  0.00  0.00     0.028 C 
ATOM     12  C   LIG d   1     -16.967  69.701 120.121  0.00  0.00     0.006 C 
ENDBRANCH   8  11
ENDBRANCH   7   8
ENDBRANCH   1   7
BRANCH   6  13
ATOM     13  N   LIG d   1     -16.085  64.062 118.271  0.00  0.00    -0.311 N 
ATOM     14  C   LIG d   1     -16.347  63.743 117.005  0.00  0.00     0.210 C 
ATOM     15  C   LIG d   1     -17.834  63.576 116.675  0.00  0.00     0.109 C 
ATOM     16  O   LIG d   1     -15.488  63.551 116.132  0.00  0.00    -0.276 OA
ATOM     17  H   LIG d   1     -16.841  64.167 118.920  0.00  0.00     0.149 HD
ENDBRANCH   6  13
BRANCH   5  18
ATOM     18  N   LIG d   1     -13.940  61.902 118.524  0.00  0.00     0.381 N 
ATOM     19  H   LIG d   1     -14.364  62.123 117.645  0.00  0.00    -0.090 HD
ATOM     20  H   LIG d   1     -14.395  61.089 118.899  0.00  0.00    -0.090 HD
ATOM     21  H   LIG d   1     -12.969  61.718 118.395  0.00  0.00    -0.090 HD
ENDBRANCH   5  18
BRANCH   3  22
ATOM     22  C   LIG d   1     -11.849  64.580 121.900  0.00  0.00     0.382 C 
ATOM     23  O   LIG d   1     -10.861  63.807 121.922  0.00  0.00    -0.241 OA
ATOM     24  O   LIG d   1     -12.025  65.378 122.840  0.00  0.00    -0.241 OA
ENDBRANCH   3  22
TORSDOF 7
ENDMDL
MODEL 6
REMARK VINA RESULT:      -4.3     33.531     34.678
REMARK  7 active torsions:
REMARK  status: ('A' for Active; 'I' for Inactive)
REMARK    1  A    between atoms: C_2  and  C_3 
REMARK    2  A    between atoms: C_3  and  O_6 
REMARK    3  A    between atoms: C_3  and  C_4 
REMARK    4  A    between atoms: C_7  and  O_6 
REMARK    5  A    between atoms: C_9  and  C_10 
REMARK    6  A    between atoms: N_15  and  C_14 
REMARK    7  A    between atoms: N_20  and  C_19 
REMARK       I    between atoms: C_22  and  N_20 
ROOT
ATOM      1  C   LIG d   1      -5.165  94.117 119.448  0.00  0.00     0.161 C 
ATOM      2  C   LIG d   1      -4.958  93.006 118.614  0.00  0.00     0.016 C 
ATOM      3  C   LIG d   1      -5.903  92.563 117.659  0.00  0.00     0.038 C 
ATOM      4  C   LIG d   1      -7.062  93.297 117.368  0.00  0.00     0.028 C 
ATOM      5  C   LIG d   1      -7.552  94.145 118.537  0.00  0.00    -0.047 C 
ATOM      6  C   LIG d   1      -6.375  94.995 119.068  0.00  0.00     0.091 C 
ENDROOT
BRANCH   1   7
ATOM      7  O   LIG d   1      -3.966  94.914 119.507  0.00  0.00    -0.368 OA
BRANCH   7   8
ATOM      8  C   LIG d   1      -2.733  94.238 119.157  0.00  0.00     0.119 C 
BRANCH   8   9
ATOM      9  C   LIG d   1      -2.066  93.783 120.469  0.00  0.00     0.028 C 
ATOM     10  C   LIG d   1      -1.711  92.287 120.459  0.00  0.00     0.006 C 
ENDBRANCH   8   9
BRANCH   8  11
ATOM     11  C   LIG d   1      -1.735  95.200 118.507  0.00  0.00     0.028 C 
ATOM     12  C   LIG d   1      -1.115  94.636 117.219  0.00  0.00     0.006 C 
ENDBRANCH   8  11
ENDBRANCH   7   8
ENDBRANCH   1   7
BRANCH   6  13
ATOM     13  N   LIG d   1      -6.747  95.792 120.266  0.00  0.00    -0.311 N 
ATOM     14  C   LIG d   1      -6.981  95.253 121.461  0.00  0.00     0.210 C 
ATOM     15  C   LIG d   1      -7.370  96.251 122.556  0.00  0.00     0.109 C 
ATOM     16  O   LIG d   1      -6.873  94.046 121.726  0.00  0.00    -0.276 OA
ATOM     17  H   LIG d   1      -6.827  96.783 120.148  0.00  0.00     0.149 HD
ENDBRANCH   6  13
BRANCH   5  18
ATOM     18  N   LIG d   1      -8.682  94.960 118.053  0.00  0.00     0.381 N 
ATOM     19  H   LIG d   1      -9.210  94.442 117.379  0.00  0.00    -0.090 HD
ATOM     20  H   LIG d   1      -8.321  95.784 117.606  0.00  0.00    -0.090 HD
ATOM     21  H   LIG d   1      -9.268  95.218 118.817  0.00  0.00    -0.090 HD
ENDBRANCH   5  18
BRANCH   3  22
ATOM     22  C   LIG d   1      -5.710  91.352 117.012  0.00  0.00     0.382 C 
ATOM     23  O   LIG d   1      -6.676  90.781 116.450  0.00  0.00    -0.241 OA
ATOM     24  O   LIG d   1      -4.593  90.802 117.022  0.00  0.00    -0.241 OA
ENDBRANCH   3  22
TORSDOF 7
ENDMDL
MODEL 7
REMARK VINA RESULT:      -4.2     31.867     33.207
REMARK  7 active torsions:
REMARK  status: ('A' for Active; 'I' for Inactive)
REMARK    1  A    between atoms: C_2  and  C_3 
REMARK    2  A    between atoms: C_3  and  O_6 
REMARK    3  A    between atoms: C_3  and  C_4 
REMARK    4  A    between atoms: C_7  and  O_6 
REMARK    5  A    between atoms: C_9  and  C_10 
REMARK    6  A    between atoms: N_15  and  C_14 
REMARK    7  A    between atoms: N_20  and  C_19 
REMARK       I    between atoms: C_22  and  N_20 
ROOT
ATOM      1  C   LIG d   1      -3.985  92.579 118.639  0.00  0.00     0.161 C 
ATOM      2  C   LIG d   1      -5.116  92.729 117.819  0.00  0.00     0.016 C 
ATOM      3  C   LIG d   1      -5.456  91.823 116.789  0.00  0.00     0.038 C 
ATOM      4  C   LIG d   1      -4.765  90.616 116.605  0.00  0.00     0.028 C 
ATOM      5  C   LIG d   1      -3.317  90.669 117.080  0.00  0.00    -0.047 C 
ATOM      6  C   LIG d   1      -3.282  91.210 118.527  0.00  0.00     0.091 C 
ENDROOT
BRANCH   1   7
ATOM      7  O   LIG d   1      -4.336  92.852 120.010  0.00  0.00    -0.368 OA
BRANCH   7   8
ATOM      8  C   LIG d   1      -3.813  94.081 120.570  0.00  0.00     0.119 C 
BRANCH   8   9
ATOM      9  C   LIG d   1      -4.996  95.053 120.740  0.00  0.00     0.028 C 
ATOM     10  C   LIG d   1      -6.308  94.327 121.081  0.00  0.00     0.006 C 
ENDBRANCH   8   9
BRANCH   8  11
ATOM     11  C   LIG d   1      -2.856  94.774 119.595  0.00  0.00     0.028 C 
ATOM     12  C   LIG d   1      -1.411  94.831 120.117  0.00  0.00     0.006 C 
ENDBRANCH   8  11
ENDBRANCH   7   8
ENDBRANCH   1   7
BRANCH   6  13
ATOM     13  N   LIG d   1      -1.896  91.373 119.039  0.00  0.00    -0.311 N 
ATOM     14  C   LIG d   1      -1.273  90.453 119.773  0.00  0.00     0.210 C 
ATOM     15  C   LIG d   1       0.145  90.830 120.214  0.00  0.00     0.109 C 
ATOM     16  O   LIG d   1      -1.748  89.348 120.074  0.00  0.00    -0.276 OA
ATOM     17  H   LIG d   1      -1.425  92.228 118.815  0.00  0.00     0.149 HD
ENDBRANCH   6  13
BRANCH   5  18
ATOM     18  N   LIG d   1      -2.758  89.309 116.958  0.00  0.00     0.381 N 
ATOM     19  H   LIG d   1      -3.428  88.705 116.524  0.00  0.00    -0.090 HD
ATOM     20  H   LIG d   1      -2.563  88.954 117.878  0.00  0.00    -0.090 HD
ATOM     21  H   LIG d   1      -1.921  89.331 116.418  0.00  0.00    -0.090 HD
ENDBRANCH   5  18
BRANCH   3  22
ATOM     22  C   LIG d   1      -6.473  92.141 115.902  0.00  0.00     0.382 C 
ATOM     23  O   LIG d   1      -6.223  92.263 114.678  0.00  0.00    -0.241 OA
ATOM     24  O   LIG d   1      -7.629  92.351 116.315  0.00  0.00    -0.241 OA
ENDBRANCH   3  22
TORSDOF 7
ENDMDL
MODEL 8
REMARK VINA RESULT:      -4.2     12.699     15.739
REMARK  7 active torsions:
REMARK  status: ('A' for Active; 'I' for Inactive)
REMARK    1  A    between atoms: C_2  and  C_3 
REMARK    2  A    between atoms: C_3  and  O_6 
REMARK    3  A    between atoms: C_3  and  C_4 
REMARK    4  A    between atoms: C_7  and  O_6 
REMARK    5  A    between atoms: C_9  and  C_10 
REMARK    6  A    between atoms: N_15  and  C_14 
REMARK    7  A    between atoms: N_20  and  C_19 
REMARK       I    between atoms: C_22  and  N_20 
ROOT
ATOM      1  C   LIG d   1     -15.241  65.259 119.489  0.00  0.00     0.161 C 
ATOM      2  C   LIG d   1     -14.941  64.045 118.849  0.00  0.00     0.016 C 
ATOM      3  C   LIG d   1     -15.404  63.712 117.555  0.00  0.00     0.038 C 
ATOM      4  C   LIG d   1     -16.078  64.640 116.747  0.00  0.00     0.028 C 
ATOM      5  C   LIG d   1     -16.838  65.696 117.543  0.00  0.00    -0.047 C 
ATOM      6  C   LIG d   1     -15.882  66.328 118.580  0.00  0.00     0.091 C 
ENDROOT
BRANCH   1   7
ATOM      7  O   LIG d   1     -14.057  65.783 120.121  0.00  0.00    -0.368 OA
BRANCH   7   8
ATOM      8  C   LIG d   1     -13.954  65.578 121.552  0.00  0.00     0.119 C 
BRANCH   8   9
ATOM      9  C   LIG d   1     -14.239  66.929 122.235  0.00  0.00     0.028 C 
ATOM     10  C   LIG d   1     -13.637  68.115 121.463  0.00  0.00     0.006 C 
ENDBRANCH   8   9
BRANCH   8  11
ATOM     11  C   LIG d   1     -12.525  65.210 121.961  0.00  0.00     0.028 C 
ATOM     12  C   LIG d   1     -11.932  64.081 121.104  0.00  0.00     0.006 C 
ENDBRANCH   8  11
ENDBRANCH   7   8
ENDBRANCH   1   7
BRANCH   6  13
ATOM     13  N   LIG d   1     -16.567  67.312 119.457  0.00  0.00    -0.311 N 
ATOM     14  C   LIG d   1     -16.623  68.616 119.192  0.00  0.00     0.210 C 
ATOM     15  C   LIG d   1     -17.362  69.458 120.238  0.00  0.00     0.109 C 
ATOM     16  O   LIG d   1     -16.159  69.152 118.174  0.00  0.00    -0.276 OA
ATOM     17  H   LIG d   1     -16.998  66.959 120.289  0.00  0.00     0.149 HD
ENDBRANCH   6  13
BRANCH   5  18
ATOM     18  N   LIG d   1     -17.378  66.676 116.581  0.00  0.00     0.381 N 
ATOM     19  H   LIG d   1     -17.322  67.596 116.969  0.00  0.00    -0.090 HD
ATOM     20  H   LIG d   1     -18.345  66.463 116.409  0.00  0.00    -0.090 HD
ATOM     21  H   LIG d   1     -16.864  66.635 115.728  0.00  0.00    -0.090 HD
ENDBRANCH   5  18
BRANCH   3  22
ATOM     22  C   LIG d   1     -15.228  62.424 117.072  0.00  0.00     0.382 C 
ATOM     23  O   LIG d   1     -16.198  61.804 116.572  0.00  0.00    -0.241 OA
ATOM     24  O   LIG d   1     -14.123  61.857 117.171  0.00  0.00    -0.241 OA
ENDBRANCH   3  22
TORSDOF 7
ENDMDL
MODEL 9
REMARK VINA RESULT:      -4.1     23.311     25.831
REMARK  7 active torsions:
REMARK  status: ('A' for Active; 'I' for Inactive)
REMARK    1  A    between atoms: C_2  and  C_3 
REMARK    2  A    between atoms: C_3  and  O_6 
REMARK    3  A    between atoms: C_3  and  C_4 
REMARK    4  A    between atoms: C_7  and  O_6 
REMARK    5  A    between atoms: C_9  and  C_10 
REMARK    6  A    between atoms: N_15  and  C_14 
REMARK    7  A    between atoms: N_20  and  C_19 
REMARK       I    between atoms: C_22  and  N_20 
ROOT
ATOM      1  C   LIG d   1     -19.450  77.557 119.798  0.00  0.00     0.161 C 
ATOM      2  C   LIG d   1     -18.550  76.528 120.123  0.00  0.00     0.016 C 
ATOM      3  C   LIG d   1     -17.671  76.583 121.228  0.00  0.00     0.038 C 
ATOM      4  C   LIG d   1     -17.738  77.613 122.178  0.00  0.00     0.028 C 
ATOM      5  C   LIG d   1     -18.282  78.922 121.615  0.00  0.00    -0.047 C 
ATOM      6  C   LIG d   1     -19.615  78.639 120.886  0.00  0.00     0.091 C 
ENDROOT
BRANCH   1   7
ATOM      7  O   LIG d   1     -20.731  76.995 119.451  0.00  0.00    -0.368 OA
BRANCH   7   8
ATOM      8  C   LIG d   1     -21.419  76.278 120.505  0.00  0.00     0.119 C 
BRANCH   8   9
ATOM      9  C   LIG d   1     -21.814  74.898 119.945  0.00  0.00     0.028 C 
ATOM     10  C   LIG d   1     -21.017  73.752 120.590  0.00  0.00     0.006 C 
ENDBRANCH   8   9
BRANCH   8  11
ATOM     11  C   LIG d   1     -22.740  76.960 120.873  0.00  0.00     0.028 C 
ATOM     12  C   LIG d   1     -23.249  77.904 119.772  0.00  0.00     0.006 C 
ENDBRANCH   8  11
ENDBRANCH   7   8
ENDBRANCH   1   7
BRANCH   6  13
ATOM     13  N   LIG d   1     -20.173  79.852 120.233  0.00  0.00    -0.311 N 
ATOM     14  C   LIG d   1     -21.073  80.646 120.809  0.00  0.00     0.210 C 
ATOM     15  C   LIG d   1     -21.531  81.832 119.954  0.00  0.00     0.109 C 
ATOM     16  O   LIG d   1     -21.512  80.499 121.960  0.00  0.00    -0.276 OA
ATOM     17  H   LIG d   1     -19.848  80.063 119.310  0.00  0.00     0.149 HD
ENDBRANCH   6  13
BRANCH   5  18
ATOM     18  N   LIG d   1     -18.428  79.865 122.740  0.00  0.00     0.381 N 
ATOM     19  H   LIG d   1     -18.441  79.361 123.605  0.00  0.00    -0.090 HD
ATOM     20  H   LIG d   1     -19.302  80.351 122.646  0.00  0.00    -0.090 HD
ATOM     21  H   LIG d   1     -17.675  80.517 122.738  0.00  0.00    -0.090 HD
ENDBRANCH   5  18
BRANCH   3  22
ATOM     22  C   LIG d   1     -16.684  75.620 121.370  0.00  0.00     0.382 C 
ATOM     23  O   LIG d   1     -15.485  75.966 121.502  0.00  0.00    -0.241 OA
ATOM     24  O   LIG d   1     -16.971  74.409 121.323  0.00  0.00    -0.241 OA
ENDBRANCH   3  22
TORSDOF 7
ENDMDL
