MODEL 1
REMARK VINA RESULT:      -5.6      0.000      0.000
REMARK  7 active torsions:
REMARK  status: ('A' for Active; 'I' for Inactive)
REMARK    1  A    between atoms: C_2  and  C_3 
REMARK    2  A    between atoms: C_3  and  O_6 
REMARK    3  A    between atoms: C_3  and  C_4 
REMARK    4  A    between atoms: C_7  and  O_6 
REMARK    5  A    between atoms: C_9  and  C_10 
REMARK    6  A    between atoms: N_15  and  C_14 
REMARK    7  A    between atoms: N_20  and  C_19 
REMARK       I    between atoms: C_22  and  N_20 
ROOT
ATOM      1  C   LIG d   1       0.249  59.512 119.341  0.00  0.00     0.161 C 
ATOM      2  C   LIG d   1      -1.076  59.073 119.184  0.00  0.00     0.016 C 
ATOM      3  C   LIG d   1      -1.685  58.869 117.925  0.00  0.00     0.038 C 
ATOM      4  C   LIG d   1      -0.956  58.946 116.728  0.00  0.00     0.028 C 
ATOM      5  C   LIG d   1       0.249  59.877 116.812  0.00  0.00    -0.047 C 
ATOM      6  C   LIG d   1       1.093  59.495 118.049  0.00  0.00     0.091 C 
ENDROOT
BRANCH   1   7
ATOM      7  O   LIG d   1       0.899  58.746 120.374  0.00  0.00    -0.368 OA
BRANCH   7   8
ATOM      8  C   LIG d   1       1.177  59.450 121.610  0.00  0.00     0.119 C 
BRANCH   8   9
ATOM      9  C   LIG d   1       0.147  58.976 122.654  0.00  0.00     0.028 C 
ATOM     10  C   LIG d   1      -0.200  57.486 122.502  0.00  0.00     0.006 C 
ENDBRANCH   8   9
BRANCH   8  11
ATOM     11  C   LIG d   1       0.939  60.955 121.460  0.00  0.00     0.028 C 
ATOM     12  C   LIG d   1       2.220  61.783 121.649  0.00  0.00     0.006 C 
ENDBRANCH   8  11
ENDBRANCH   7   8
ENDBRANCH   1   7
BRANCH   6  13
ATOM     13  N   LIG d   1       2.246  60.410 118.253  0.00  0.00    -0.311 N 
ATOM     14  C   LIG d   1       3.503  59.987 118.385  0.00  0.00     0.210 C 
ATOM     15  C   LIG d   1       4.537  61.095 118.607  0.00  0.00     0.109 C 
ATOM     16  O   LIG d   1       3.863  58.803 118.308  0.00  0.00    -0.276 OA
ATOM     17  H   LIG d   1       2.049  61.390 118.297  0.00  0.00     0.149 HD
ENDBRANCH   6  13
BRANCH   5  18
ATOM     18  N   LIG d   1       0.994  59.756 115.544  0.00  0.00     0.381 N 
ATOM     19  H   LIG d   1       1.907  60.150 115.649  0.00  0.00    -0.090 HD
ATOM     20  H   LIG d   1       0.508  60.272 114.832  0.00  0.00    -0.090 HD
ATOM     21  H   LIG d   1       1.066  58.798 115.281  0.00  0.00    -0.090 HD
ENDBRANCH   5  18
BRANCH   3  22
ATOM     22  C   LIG d   1      -3.047  58.623 117.851  0.00  0.00     0.382 C 
ATOM     23  O   LIG d   1      -3.821  59.505 117.408  0.00  0.00    -0.241 OA
ATOM     24  O   LIG d   1      -3.518  57.546 118.265  0.00  0.00    -0.241 OA
ENDBRANCH   3  22
TORSDOF 7
ENDMDL
MODEL 2
REMARK VINA RESULT:      -5.4     31.954     33.373
REMARK  7 active torsions:
REMARK  status: ('A' for Active; 'I' for Inactive)
REMARK    1  A    between atoms: C_2  and  C_3 
REMARK    2  A    between atoms: C_3  and  O_6 
REMARK    3  A    between atoms: C_3  and  C_4 
REMARK    4  A    between atoms: C_7  and  O_6 
REMARK    5  A    between atoms: C_9  and  C_10 
REMARK    6  A    between atoms: N_15  and  C_14 
REMARK    7  A    between atoms: N_20  and  C_19 
REMARK       I    between atoms: C_22  and  N_20 
ROOT
ATOM      1  C   LIG d   1      -5.866  91.514 118.487  0.00  0.00     0.161 C 
ATOM      2  C   LIG d   1      -5.943  90.699 117.346  0.00  0.00     0.016 C 
ATOM      3  C   LIG d   1      -6.478  91.136 116.112  0.00  0.00     0.038 C 
ATOM      4  C   LIG d   1      -6.835  92.475 115.891  0.00  0.00     0.028 C 
ATOM      5  C   LIG d   1      -7.245  93.210 117.163  0.00  0.00    -0.047 C 
ATOM      6  C   LIG d   1      -6.148  93.010 118.234  0.00  0.00     0.091 C 
ENDROOT
BRANCH   1   7
ATOM      7  O   LIG d   1      -4.582  91.347 119.120  0.00  0.00    -0.368 OA
BRANCH   7   8
ATOM      8  C   LIG d   1      -3.480  90.999 118.246  0.00  0.00     0.119 C 
BRANCH   8   9
ATOM      9  C   LIG d   1      -2.925  89.641 118.718  0.00  0.00     0.028 C 
ATOM     10  C   LIG d   1      -2.717  88.656 117.556  0.00  0.00     0.006 C 
ENDBRANCH   8   9
BRANCH   8  11
ATOM     11  C   LIG d   1      -2.318  91.986 118.394  0.00  0.00     0.028 C 
ATOM     12  C   LIG d   1      -2.566  93.039 119.486  0.00  0.00     0.006 C 
ENDBRANCH   8  11
ENDBRANCH   7   8
ENDBRANCH   1   7
BRANCH   6  13
ATOM     13  N   LIG d   1      -6.508  93.627 119.537  0.00  0.00    -0.311 N 
ATOM     14  C   LIG d   1      -6.107  94.841 119.909  0.00  0.00     0.210 C 
ATOM     15  C   LIG d   1      -6.575  95.278 121.301  0.00  0.00     0.109 C 
ATOM     16  O   LIG d   1      -5.435  95.610 119.206  0.00  0.00    -0.276 OA
ATOM     17  H   LIG d   1      -7.078  93.084 120.156  0.00  0.00     0.149 HD
ENDBRANCH   6  13
BRANCH   5  18
ATOM     18  N   LIG d   1      -7.457  94.626 116.810  0.00  0.00     0.381 N 
ATOM     19  H   LIG d   1      -8.352  94.736 116.376  0.00  0.00    -0.090 HD
ATOM     20  H   LIG d   1      -6.751  94.907 116.153  0.00  0.00    -0.090 HD
ATOM     21  H   LIG d   1      -7.405  95.193 117.628  0.00  0.00    -0.090 HD
ENDBRANCH   5  18
BRANCH   3  22
ATOM     22  C   LIG d   1      -6.698  90.220 115.095  0.00  0.00     0.382 C 
ATOM     23  O   LIG d   1      -7.828  90.140 114.555  0.00  0.00    -0.241 OA
ATOM     24  O   LIG d   1      -5.793  89.441 114.740  0.00  0.00    -0.241 OA
ENDBRANCH   3  22
TORSDOF 7
ENDMDL
MODEL 3
REMARK VINA RESULT:      -5.4      1.212      2.058
REMARK  7 active torsions:
REMARK  status: ('A' for Active; 'I' for Inactive)
REMARK    1  A    between atoms: C_2  and  C_3 
REMARK    2  A    between atoms: C_3  and  O_6 
REMARK    3  A    between atoms: C_3  and  C_4 
REMARK    4  A    between atoms: C_7  and  O_6 
REMARK    5  A    between atoms: C_9  and  C_10 
REMARK    6  A    between atoms: N_15  and  C_14 
REMARK    7  A    between atoms: N_20  and  C_19 
REMARK       I    between atoms: C_22  and  N_20 
ROOT
ATOM      1  C   LIG d   1       0.184  59.433 119.585  0.00  0.00     0.161 C 
ATOM      2  C   LIG d   1      -1.118  58.974 119.322  0.00  0.00     0.016 C 
ATOM      3  C   LIG d   1      -1.635  58.806 118.017  0.00  0.00     0.038 C 
ATOM      4  C   LIG d   1      -0.829  58.944 116.877  0.00  0.00     0.028 C 
ATOM      5  C   LIG d   1       0.346  59.895 117.077  0.00  0.00    -0.047 C 
ATOM      6  C   LIG d   1       1.113  59.482 118.354  0.00  0.00     0.091 C 
ENDROOT
BRANCH   1   7
ATOM      7  O   LIG d   1       0.780  58.641 120.631  0.00  0.00    -0.368 OA
BRANCH   7   8
ATOM      8  C   LIG d   1       0.064  57.439 121.007  0.00  0.00     0.119 C 
BRANCH   8   9
ATOM      9  C   LIG d   1      -0.015  57.407 122.545  0.00  0.00     0.028 C 
ATOM     10  C   LIG d   1      -1.410  57.788 123.069  0.00  0.00     0.006 C 
ENDBRANCH   8   9
BRANCH   8  11
ATOM     11  C   LIG d   1       0.845  56.181 120.615  0.00  0.00     0.028 C 
ATOM     12  C   LIG d   1       0.481  54.961 121.476  0.00  0.00     0.006 C 
ENDBRANCH   8  11
ENDBRANCH   7   8
ENDBRANCH   1   7
BRANCH   6  13
ATOM     13  N   LIG d   1       2.229  60.412 118.670  0.00  0.00    -0.311 N 
ATOM     14  C   LIG d   1       3.491  60.193 118.305  0.00  0.00     0.210 C 
ATOM     15  C   LIG d   1       4.488  61.267 118.750  0.00  0.00     0.109 C 
ATOM     16  O   LIG d   1       3.874  59.227 117.628  0.00  0.00    -0.276 OA
ATOM     17  H   LIG d   1       2.002  61.237 119.190  0.00  0.00     0.149 HD
ENDBRANCH   6  13
BRANCH   5  18
ATOM     18  N   LIG d   1       1.177  59.838 115.860  0.00  0.00     0.381 N 
ATOM     19  H   LIG d   1       2.143  59.931 116.104  0.00  0.00    -0.090 HD
ATOM     20  H   LIG d   1       0.929  60.605 115.260  0.00  0.00    -0.090 HD
ATOM     21  H   LIG d   1       1.029  58.974 115.385  0.00  0.00    -0.090 HD
ENDBRANCH   5  18
BRANCH   3  22
ATOM     22  C   LIG d   1      -2.983  58.535 117.842  0.00  0.00     0.382 C 
ATOM     23  O   LIG d   1      -3.761  59.444 117.462  0.00  0.00    -0.241 OA
ATOM     24  O   LIG d   1      -3.440  57.406 118.102  0.00  0.00    -0.241 OA
ENDBRANCH   3  22
TORSDOF 7
ENDMDL
MODEL 4
REMARK VINA RESULT:      -5.4     32.163     33.599
REMARK  7 active torsions:
REMARK  status: ('A' for Active; 'I' for Inactive)
REMARK    1  A    between atoms: C_2  and  C_3 
REMARK    2  A    between atoms: C_3  and  O_6 
REMARK    3  A    between atoms: C_3  and  C_4 
REMARK    4  A    between atoms: C_7  and  O_6 
REMARK    5  A    between atoms: C_9  and  C_10 
REMARK    6  A    between atoms: N_15  and  C_14 
REMARK    7  A    between atoms: N_20  and  C_19 
REMARK       I    between atoms: C_22  and  N_20 
ROOT
ATOM      1  C   LIG d   1      -5.329  91.898 118.220  0.00  0.00     0.161 C 
ATOM      2  C   LIG d   1      -5.374  90.948 117.186  0.00  0.00     0.016 C 
ATOM      3  C   LIG d   1      -6.138  91.115 116.009  0.00  0.00     0.038 C 
ATOM      4  C   LIG d   1      -6.796  92.319 115.716  0.00  0.00     0.028 C 
ATOM      5  C   LIG d   1      -7.191  93.111 116.958  0.00  0.00    -0.047 C 
ATOM      6  C   LIG d   1      -5.952  93.266 117.869  0.00  0.00     0.091 C 
ENDROOT
BRANCH   1   7
ATOM      7  O   LIG d   1      -3.971  92.067 118.671  0.00  0.00    -0.368 OA
BRANCH   7   8
ATOM      8  C   LIG d   1      -3.627  91.416 119.918  0.00  0.00     0.119 C 
BRANCH   8   9
ATOM      9  C   LIG d   1      -3.366  92.521 120.960  0.00  0.00     0.028 C 
ATOM     10  C   LIG d   1      -2.396  93.597 120.444  0.00  0.00     0.006 C 
ENDBRANCH   8   9
BRANCH   8  11
ATOM     11  C   LIG d   1      -2.307  90.648 119.802  0.00  0.00     0.028 C 
ATOM     12  C   LIG d   1      -1.813  90.529 118.351  0.00  0.00     0.006 C 
ENDBRANCH   8  11
ENDBRANCH   7   8
ENDBRANCH   1   7
BRANCH   6  13
ATOM     13  N   LIG d   1      -6.270  93.956 119.146  0.00  0.00    -0.311 N 
ATOM     14  C   LIG d   1      -5.674  95.080 119.540  0.00  0.00     0.210 C 
ATOM     15  C   LIG d   1      -6.136  95.615 120.899  0.00  0.00     0.109 C 
ATOM     16  O   LIG d   1      -4.829  95.702 118.878  0.00  0.00    -0.276 OA
ATOM     17  H   LIG d   1      -6.967  93.537 119.730  0.00  0.00     0.149 HD
ENDBRANCH   6  13
BRANCH   5  18
ATOM     18  N   LIG d   1      -7.741  94.403 116.506  0.00  0.00     0.381 N 
ATOM     19  H   LIG d   1      -8.414  94.734 117.168  0.00  0.00    -0.090 HD
ATOM     20  H   LIG d   1      -8.206  94.268 115.625  0.00  0.00    -0.090 HD
ATOM     21  H   LIG d   1      -7.008  95.069 116.404  0.00  0.00    -0.090 HD
ENDBRANCH   5  18
BRANCH   3  22
ATOM     22  C   LIG d   1      -6.283  90.054 115.127  0.00  0.00     0.382 C 
ATOM     23  O   LIG d   1      -7.382  89.860 114.555  0.00  0.00    -0.241 OA
ATOM     24  O   LIG d   1      -5.341  89.263 114.931  0.00  0.00    -0.241 OA
ENDBRANCH   3  22
TORSDOF 7
ENDMDL
MODEL 5
REMARK VINA RESULT:      -5.4     33.412     34.853
REMARK  7 active torsions:
REMARK  status: ('A' for Active; 'I' for Inactive)
REMARK    1  A    between atoms: C_2  and  C_3 
REMARK    2  A    between atoms: C_3  and  O_6 
REMARK    3  A    between atoms: C_3  and  C_4 
REMARK    4  A    between atoms: C_7  and  O_6 
REMARK    5  A    between atoms: C_9  and  C_10 
REMARK    6  A    between atoms: N_15  and  C_14 
REMARK    7  A    between atoms: N_20  and  C_19 
REMARK       I    between atoms: C_22  and  N_20 
ROOT
ATOM      1  C   LIG d   1      -6.872  93.241 117.773  0.00  0.00     0.161 C 
ATOM      2  C   LIG d   1      -7.294  92.047 117.165  0.00  0.00     0.016 C 
ATOM      3  C   LIG d   1      -6.415  90.994 116.825  0.00  0.00     0.038 C 
ATOM      4  C   LIG d   1      -5.065  91.002 117.208  0.00  0.00     0.028 C 
ATOM      5  C   LIG d   1      -4.491  92.405 117.374  0.00  0.00    -0.047 C 
ATOM      6  C   LIG d   1      -5.422  93.222 118.299  0.00  0.00     0.091 C 
ENDROOT
BRANCH   1   7
ATOM      7  O   LIG d   1      -7.784  93.601 118.829  0.00  0.00    -0.368 OA
BRANCH   7   8
ATOM      8  C   LIG d   1      -8.737  94.648 118.520  0.00  0.00     0.119 C 
BRANCH   8   9
ATOM      9  C   LIG d   1      -8.144  95.489 117.373  0.00  0.00     0.028 C 
ATOM     10  C   LIG d   1      -7.956  96.965 117.763  0.00  0.00     0.006 C 
ENDBRANCH   8   9
BRANCH   8  11
ATOM     11  C   LIG d   1      -8.897  95.619 119.694  0.00  0.00     0.028 C 
ATOM     12  C   LIG d   1     -10.273  95.512 120.371  0.00  0.00     0.006 C 
ENDBRANCH   8  11
ENDBRANCH   7   8
ENDBRANCH   1   7
BRANCH   6  13
ATOM     13  N   LIG d   1      -4.978  94.632 118.447  0.00  0.00    -0.311 N 
ATOM     14  C   LIG d   1      -4.968  95.279 119.611  0.00  0.00     0.210 C 
ATOM     15  C   LIG d   1      -4.492  96.734 119.539  0.00  0.00     0.109 C 
ATOM     16  O   LIG d   1      -5.276  94.777 120.702  0.00  0.00    -0.276 OA
ATOM     17  H   LIG d   1      -4.681  95.107 117.617  0.00  0.00     0.149 HD
ENDBRANCH   6  13
BRANCH   5  18
ATOM     18  N   LIG d   1      -3.123  92.266 117.908  0.00  0.00     0.381 N 
ATOM     19  H   LIG d   1      -3.146  91.767 118.775  0.00  0.00    -0.090 HD
ATOM     20  H   LIG d   1      -2.747  93.181 118.081  0.00  0.00    -0.090 HD
ATOM     21  H   LIG d   1      -2.549  91.782 117.253  0.00  0.00    -0.090 HD
ENDBRANCH   5  18
BRANCH   3  22
ATOM     22  C   LIG d   1      -6.875  89.935 116.057  0.00  0.00     0.382 C 
ATOM     23  O   LIG d   1      -7.816  89.219 116.476  0.00  0.00    -0.241 OA
ATOM     24  O   LIG d   1      -6.331  89.659 114.971  0.00  0.00    -0.241 OA
ENDBRANCH   3  22
TORSDOF 7
ENDMDL
MODEL 6
REMARK VINA RESULT:      -5.2     18.089     19.335
REMARK  7 active torsions:
REMARK  status: ('A' for Active; 'I' for Inactive)
REMARK    1  A    between atoms: C_2  and  C_3 
REMARK    2  A    between atoms: C_3  and  O_6 
REMARK    3  A    between atoms: C_3  and  C_4 
REMARK    4  A    between atoms: C_7  and  O_6 
REMARK    5  A    between atoms: C_9  and  C_10 
REMARK    6  A    between atoms: N_15  and  C_14 
REMARK    7  A    between atoms: N_20  and  C_19 
REMARK       I    between atoms: C_22  and  N_20 
ROOT
ATOM      1  C   LIG d   1      -6.042  77.113 116.159  0.00  0.00     0.161 C 
ATOM      2  C   LIG d   1      -5.134  76.061 115.956  0.00  0.00     0.016 C 
ATOM      3  C   LIG d   1      -3.874  75.986 116.592  0.00  0.00     0.038 C 
ATOM      4  C   LIG d   1      -3.496  76.889 117.597  0.00  0.00     0.028 C 
ATOM      5  C   LIG d   1      -4.168  78.252 117.471  0.00  0.00    -0.047 C 
ATOM      6  C   LIG d   1      -5.694  78.049 117.336  0.00  0.00     0.091 C 
ENDROOT
BRANCH   1   7
ATOM      7  O   LIG d   1      -7.374  76.586 116.315  0.00  0.00    -0.368 OA
BRANCH   7   8
ATOM      8  C   LIG d   1      -7.560  75.630 117.388  0.00  0.00     0.119 C 
BRANCH   8   9
ATOM      9  C   LIG d   1      -8.388  74.458 116.825  0.00  0.00     0.028 C 
ATOM     10  C   LIG d   1      -8.146  73.147 117.592  0.00  0.00     0.006 C 
ENDBRANCH   8   9
BRANCH   8  11
ATOM     11  C   LIG d   1      -8.407  76.218 118.519  0.00  0.00     0.028 C 
ATOM     12  C   LIG d   1      -9.452  77.228 118.018  0.00  0.00     0.006 C 
ENDBRANCH   8  11
ENDBRANCH   7   8
ENDBRANCH   1   7
BRANCH   6  13
ATOM     13  N   LIG d   1      -6.420  79.328 117.124  0.00  0.00    -0.311 N 
ATOM     14  C   LIG d   1      -6.977  80.028 118.110  0.00  0.00     0.210 C 
ATOM     15  C   LIG d   1      -7.694  81.308 117.671  0.00  0.00     0.109 C 
ATOM     16  O   LIG d   1      -6.918  79.727 119.312  0.00  0.00    -0.276 OA
ATOM     17  H   LIG d   1      -6.489  79.662 116.182  0.00  0.00     0.149 HD
ENDBRANCH   6  13
BRANCH   5  18
ATOM     18  N   LIG d   1      -3.792  79.046 118.656  0.00  0.00     0.381 N 
ATOM     19  H   LIG d   1      -4.579  79.579 118.970  0.00  0.00    -0.090 HD
ATOM     20  H   LIG d   1      -3.060  79.684 118.401  0.00  0.00    -0.090 HD
ATOM     21  H   LIG d   1      -3.479  78.443 119.385  0.00  0.00    -0.090 HD
ENDBRANCH   5  18
BRANCH   3  22
ATOM     22  C   LIG d   1      -2.959  75.023 116.194  0.00  0.00     0.382 C 
ATOM     23  O   LIG d   1      -2.451  74.253 117.044  0.00  0.00    -0.241 OA
ATOM     24  O   LIG d   1      -2.603  74.944 115.003  0.00  0.00    -0.241 OA
ENDBRANCH   3  22
TORSDOF 7
ENDMDL
MODEL 7
REMARK VINA RESULT:      -5.1     19.546     20.812
REMARK  7 active torsions:
REMARK  status: ('A' for Active; 'I' for Inactive)
REMARK    1  A    between atoms: C_2  and  C_3 
REMARK    2  A    between atoms: C_3  and  O_6 
REMARK    3  A    between atoms: C_3  and  C_4 
REMARK    4  A    between atoms: C_7  and  O_6 
REMARK    5  A    between atoms: C_9  and  C_10 
REMARK    6  A    between atoms: N_15  and  C_14 
REMARK    7  A    between atoms: N_20  and  C_19 
REMARK       I    between atoms: C_22  and  N_20 
ROOT
ATOM      1  C   LIG d   1      -7.039  78.122 117.494  0.00  0.00     0.161 C 
ATOM      2  C   LIG d   1      -6.001  77.917 116.570  0.00  0.00     0.016 C 
ATOM      3  C   LIG d   1      -5.765  76.681 115.926  0.00  0.00     0.038 C 
ATOM      4  C   LIG d   1      -6.651  75.600 116.049  0.00  0.00     0.028 C 
ATOM      5  C   LIG d   1      -7.428  75.600 117.361  0.00  0.00    -0.047 C 
ATOM      6  C   LIG d   1      -8.082  76.987 117.557  0.00  0.00     0.091 C 
ENDROOT
BRANCH   1   7
ATOM      7  O   LIG d   1      -7.686  79.383 117.231  0.00  0.00    -0.368 OA
BRANCH   7   8
ATOM      8  C   LIG d   1      -7.716  80.326 118.331  0.00  0.00     0.119 C 
BRANCH   8   9
ATOM      9  C   LIG d   1      -8.666  81.472 117.932  0.00  0.00     0.028 C 
ATOM     10  C   LIG d   1     -10.147  81.079 118.062  0.00  0.00     0.006 C 
ENDBRANCH   8   9
BRANCH   8  11
ATOM     11  C   LIG d   1      -6.349  80.985 118.537  0.00  0.00     0.028 C 
ATOM     12  C   LIG d   1      -6.350  82.012 119.681  0.00  0.00     0.006 C 
ENDBRANCH   8  11
ENDBRANCH   7   8
ENDBRANCH   1   7
BRANCH   6  13
ATOM     13  N   LIG d   1      -8.792  77.100 118.858  0.00  0.00    -0.311 N 
ATOM     14  C   LIG d   1     -10.074  77.444 118.966  0.00  0.00     0.210 C 
ATOM     15  C   LIG d   1     -10.604  77.521 120.401  0.00  0.00     0.109 C 
ATOM     16  O   LIG d   1     -10.831  77.662 118.008  0.00  0.00    -0.276 OA
ATOM     17  H   LIG d   1      -8.261  76.910 119.685  0.00  0.00     0.149 HD
ENDBRANCH   6  13
BRANCH   5  18
ATOM     18  N   LIG d   1      -8.410  74.501 117.298  0.00  0.00     0.381 N 
ATOM     19  H   LIG d   1      -9.070  74.678 116.567  0.00  0.00    -0.090 HD
ATOM     20  H   LIG d   1      -8.908  74.460 118.170  0.00  0.00    -0.090 HD
ATOM     21  H   LIG d   1      -7.944  73.636 117.132  0.00  0.00    -0.090 HD
ENDBRANCH   5  18
BRANCH   3  22
ATOM     22  C   LIG d   1      -4.611  76.505 115.179  0.00  0.00     0.382 C 
ATOM     23  O   LIG d   1      -3.930  77.500 114.832  0.00  0.00    -0.241 OA
ATOM     24  O   LIG d   1      -4.265  75.366 114.809  0.00  0.00    -0.241 OA
ENDBRANCH   3  22
TORSDOF 7
ENDMDL
MODEL 8
REMARK VINA RESULT:      -5.1     32.291     33.738
REMARK  7 active torsions:
REMARK  status: ('A' for Active; 'I' for Inactive)
REMARK    1  A    between atoms: C_2  and  C_3 
REMARK    2  A    between atoms: C_3  and  O_6 
REMARK    3  A    between atoms: C_3  and  C_4 
REMARK    4  A    between atoms: C_7  and  O_6 
REMARK    5  A    between atoms: C_9  and  C_10 
REMARK    6  A    between atoms: N_15  and  C_14 
REMARK    7  A    between atoms: N_20  and  C_19 
REMARK       I    between atoms: C_22  and  N_20 
ROOT
ATOM      1  C   LIG d   1      -6.278  92.337 117.186  0.00  0.00     0.161 C 
ATOM      2  C   LIG d   1      -7.537  92.798 117.605  0.00  0.00     0.016 C 
ATOM      3  C   LIG d   1      -7.715  93.719 118.663  0.00  0.00     0.038 C 
ATOM      4  C   LIG d   1      -6.630  94.362 119.278  0.00  0.00     0.028 C 
ATOM      5  C   LIG d   1      -5.339  93.551 119.229  0.00  0.00    -0.047 C 
ATOM      6  C   LIG d   1      -5.078  93.111 117.770  0.00  0.00     0.091 C 
ENDROOT
BRANCH   1   7
ATOM      7  O   LIG d   1      -6.215  92.330 115.746  0.00  0.00    -0.368 OA
BRANCH   7   8
ATOM      8  C   LIG d   1      -6.270  91.028 115.112  0.00  0.00     0.119 C 
BRANCH   8   9
ATOM      9  C   LIG d   1      -7.733  90.774 114.701  0.00  0.00     0.028 C 
ATOM     10  C   LIG d   1      -8.427  89.743 115.607  0.00  0.00     0.006 C 
ENDBRANCH   8   9
BRANCH   8  11
ATOM     11  C   LIG d   1      -5.927  89.912 116.103  0.00  0.00     0.028 C 
ATOM     12  C   LIG d   1      -4.626  89.176 115.745  0.00  0.00     0.006 C 
ENDBRANCH   8  11
ENDBRANCH   7   8
ENDBRANCH   1   7
BRANCH   6  13
ATOM     13  N   LIG d   1      -3.879  92.242 117.647  0.00  0.00    -0.311 N 
ATOM     14  C   LIG d   1      -3.547  91.318 118.547  0.00  0.00     0.210 C 
ATOM     15  C   LIG d   1      -2.261  90.546 118.237  0.00  0.00     0.109 C 
ATOM     16  O   LIG d   1      -4.213  91.043 119.556  0.00  0.00    -0.276 OA
ATOM     17  H   LIG d   1      -3.299  92.377 116.842  0.00  0.00     0.149 HD
ENDBRANCH   6  13
BRANCH   5  18
ATOM     18  N   LIG d   1      -4.262  94.394 119.781  0.00  0.00     0.381 N 
ATOM     19  H   LIG d   1      -3.387  93.916 119.709  0.00  0.00    -0.090 HD
ATOM     20  H   LIG d   1      -4.449  94.566 120.753  0.00  0.00    -0.090 HD
ATOM     21  H   LIG d   1      -4.218  95.258 119.286  0.00  0.00    -0.090 HD
ENDBRANCH   5  18
BRANCH   3  22
ATOM     22  C   LIG d   1      -8.990  93.976 119.143  0.00  0.00     0.382 C 
ATOM     23  O   LIG d   1      -9.602  95.008 118.777  0.00  0.00    -0.241 OA
ATOM     24  O   LIG d   1      -9.519  93.211 119.972  0.00  0.00    -0.241 OA
ENDBRANCH   3  22
TORSDOF 7
ENDMDL
MODEL 9
REMARK VINA RESULT:      -5.1     19.295     20.491
REMARK  7 active torsions:
REMARK  status: ('A' for Active; 'I' for Inactive)
REMARK    1  A    between atoms: C_2  and  C_3 
REMARK    2  A    between atoms: C_3  and  O_6 
REMARK    3  A    between atoms: C_3  and  C_4 
REMARK    4  A    between atoms: C_7  and  O_6 
REMARK    5  A    between atoms: C_9  and  C_10 
REMARK    6  A    between atoms: N_15  and  C_14 
REMARK    7  A    between atoms: N_20  and  C_19 
REMARK       I    between atoms: C_22  and  N_20 
ROOT
ATOM      1  C   LIG d   1      -6.679  77.956 117.381  0.00  0.00     0.161 C 
ATOM      2  C   LIG d   1      -6.655  76.604 117.000  0.00  0.00     0.016 C 
ATOM      3  C   LIG d   1      -7.783  75.755 117.070  0.00  0.00     0.038 C 
ATOM      4  C   LIG d   1      -9.059  76.243 117.386  0.00  0.00     0.028 C 
ATOM      5  C   LIG d   1      -9.031  77.489 118.264  0.00  0.00    -0.047 C 
ATOM      6  C   LIG d   1      -8.089  78.534 117.623  0.00  0.00     0.091 C 
ENDROOT
BRANCH   1   7
ATOM      7  O   LIG d   1      -5.972  78.751 116.409  0.00  0.00    -0.368 OA
BRANCH   7   8
ATOM      8  C   LIG d   1      -4.683  79.266 116.823  0.00  0.00     0.119 C 
BRANCH   8   9
ATOM      9  C   LIG d   1      -3.602  78.471 116.066  0.00  0.00     0.028 C 
ATOM     10  C   LIG d   1      -2.213  78.607 116.711  0.00  0.00     0.006 C 
ENDBRANCH   8   9
BRANCH   8  11
ATOM     11  C   LIG d   1      -4.423  78.990 118.307  0.00  0.00     0.028 C 
ATOM     12  C   LIG d   1      -4.402  80.272 119.156  0.00  0.00     0.006 C 
ENDBRANCH   8  11
ENDBRANCH   7   8
ENDBRANCH   1   7
BRANCH   6  13
ATOM     13  N   LIG d   1      -7.939  79.751 118.462  0.00  0.00    -0.311 N 
ATOM     14  C   LIG d   1      -7.955  80.988 117.969  0.00  0.00     0.210 C 
ATOM     15  C   LIG d   1      -7.763  82.100 119.005  0.00  0.00     0.109 C 
ATOM     16  O   LIG d   1      -8.143  81.271 116.776  0.00  0.00    -0.276 OA
ATOM     17  H   LIG d   1      -7.813  79.614 119.446  0.00  0.00     0.149 HD
ENDBRANCH   6  13
BRANCH   5  18
ATOM     18  N   LIG d   1     -10.419  77.969 118.402  0.00  0.00     0.381 N 
ATOM     19  H   LIG d   1     -10.946  77.326 118.959  0.00  0.00    -0.090 HD
ATOM     20  H   LIG d   1     -10.839  78.014 117.490  0.00  0.00    -0.090 HD
ATOM     21  H   LIG d   1     -10.428  78.871 118.825  0.00  0.00    -0.090 HD
ENDBRANCH   5  18
BRANCH   3  22
ATOM     22  C   LIG d   1      -7.632  74.393 116.860  0.00  0.00     0.382 C 
ATOM     23  O   LIG d   1      -8.436  73.585 117.383  0.00  0.00    -0.241 OA
ATOM     24  O   LIG d   1      -6.675  73.959 116.190  0.00  0.00    -0.241 OA
ENDBRANCH   3  22
TORSDOF 7
ENDMDL
