MODEL 1
REMARK VINA RESULT:      -5.6      0.000      0.000
REMARK  7 active torsions:
REMARK  status: ('A' for Active; 'I' for Inactive)
REMARK    1  A    between atoms: C_2  and  C_3 
REMARK    2  A    between atoms: C_3  and  O_6 
REMARK    3  A    between atoms: C_3  and  C_4 
REMARK    4  A    between atoms: C_7  and  O_6 
REMARK    5  A    between atoms: C_9  and  C_10 
REMARK    6  A    between atoms: N_15  and  C_14 
REMARK    7  A    between atoms: N_20  and  C_19 
REMARK       I    between atoms: C_22  and  N_20 
ROOT
ATOM      1  C   LIG d   1      -0.263  59.648 119.081  0.00  0.00     0.161 C 
ATOM      2  C   LIG d   1      -0.460  60.202 117.805  0.00  0.00     0.016 C 
ATOM      3  C   LIG d   1      -0.450  59.439 116.615  0.00  0.00     0.038 C 
ATOM      4  C   LIG d   1      -0.394  58.037 116.634  0.00  0.00     0.028 C 
ATOM      5  C   LIG d   1       0.312  57.476 117.864  0.00  0.00    -0.047 C 
ATOM      6  C   LIG d   1      -0.311  58.106 119.130  0.00  0.00     0.091 C 
ENDROOT
BRANCH   1   7
ATOM      7  O   LIG d   1      -1.213  60.209 120.009  0.00  0.00    -0.368 OA
BRANCH   7   8
ATOM      8  C   LIG d   1      -2.510  59.565 120.060  0.00  0.00     0.119 C 
BRANCH   8   9
ATOM      9  C   LIG d   1      -3.549  60.575 119.538  0.00  0.00     0.028 C 
ATOM     10  C   LIG d   1      -4.249  60.090 118.258  0.00  0.00     0.006 C 
ENDBRANCH   8   9
BRANCH   8  11
ATOM     11  C   LIG d   1      -2.926  59.264 121.503  0.00  0.00     0.028 C 
ATOM     12  C   LIG d   1      -1.874  59.709 122.532  0.00  0.00     0.006 C 
ENDBRANCH   8  11
ENDBRANCH   7   8
ENDBRANCH   1   7
BRANCH   6  13
ATOM     13  N   LIG d   1       0.378  57.675 120.375  0.00  0.00    -0.311 N 
ATOM     14  C   LIG d   1      -0.057  56.679 121.146  0.00  0.00     0.210 C 
ATOM     15  C   LIG d   1       0.790  56.411 122.394  0.00  0.00     0.109 C 
ATOM     16  O   LIG d   1      -1.045  55.972 120.897  0.00  0.00    -0.276 OA
ATOM     17  H   LIG d   1       1.205  58.175 120.635  0.00  0.00     0.149 HD
ENDBRANCH   6  13
BRANCH   5  18
ATOM     18  N   LIG d   1       0.177  56.008 117.823  0.00  0.00     0.381 N 
ATOM     19  H   LIG d   1      -0.777  55.750 117.978  0.00  0.00    -0.090 HD
ATOM     20  H   LIG d   1       0.735  55.610 118.558  0.00  0.00    -0.090 HD
ATOM     21  H   LIG d   1       0.483  55.662 116.940  0.00  0.00    -0.090 HD
ENDBRANCH   5  18
BRANCH   3  22
ATOM     22  C   LIG d   1      -0.458  60.082 115.386  0.00  0.00     0.382 C 
ATOM     23  O   LIG d   1      -1.545  60.442 114.874  0.00  0.00    -0.241 OA
ATOM     24  O   LIG d   1       0.604  60.266 114.763  0.00  0.00    -0.241 OA
ENDBRANCH   3  22
TORSDOF 7
ENDMDL
MODEL 2
REMARK VINA RESULT:      -5.6     16.820     19.074
REMARK  7 active torsions:
REMARK  status: ('A' for Active; 'I' for Inactive)
REMARK    1  A    between atoms: C_2  and  C_3 
REMARK    2  A    between atoms: C_3  and  O_6 
REMARK    3  A    between atoms: C_3  and  C_4 
REMARK    4  A    between atoms: C_7  and  O_6 
REMARK    5  A    between atoms: C_9  and  C_10 
REMARK    6  A    between atoms: N_15  and  C_14 
REMARK    7  A    between atoms: N_20  and  C_19 
REMARK       I    between atoms: C_22  and  N_20 
ROOT
ATOM      1  C   LIG d   1      -7.924  75.537 118.322  0.00  0.00     0.161 C 
ATOM      2  C   LIG d   1      -9.006  75.927 119.130  0.00  0.00     0.016 C 
ATOM      3  C   LIG d   1      -9.389  77.274 119.319  0.00  0.00     0.038 C 
ATOM      4  C   LIG d   1      -8.807  78.320 118.588  0.00  0.00     0.028 C 
ATOM      5  C   LIG d   1      -7.378  78.026 118.143  0.00  0.00    -0.047 C 
ATOM      6  C   LIG d   1      -7.347  76.655 117.430  0.00  0.00     0.091 C 
ENDROOT
BRANCH   1   7
ATOM      7  O   LIG d   1      -8.298  74.399 117.520  0.00  0.00    -0.368 OA
BRANCH   7   8
ATOM      8  C   LIG d   1      -7.701  73.133 117.892  0.00  0.00     0.119 C 
BRANCH   8   9
ATOM      9  C   LIG d   1      -7.439  72.345 116.594  0.00  0.00     0.028 C 
ATOM     10  C   LIG d   1      -6.007  72.542 116.067  0.00  0.00     0.006 C 
ENDBRANCH   8   9
BRANCH   8  11
ATOM     11  C   LIG d   1      -8.677  72.271 118.699  0.00  0.00     0.028 C 
ATOM     12  C   LIG d   1      -8.917  70.891 118.066  0.00  0.00     0.006 C 
ENDBRANCH   8  11
ENDBRANCH   7   8
ENDBRANCH   1   7
BRANCH   6  13
ATOM     13  N   LIG d   1      -5.972  76.252 117.036  0.00  0.00    -0.311 N 
ATOM     14  C   LIG d   1      -5.563  76.180 115.771  0.00  0.00     0.210 C 
ATOM     15  C   LIG d   1      -4.112  75.724 115.585  0.00  0.00     0.109 C 
ATOM     16  O   LIG d   1      -6.254  76.481 114.786  0.00  0.00    -0.276 OA
ATOM     17  H   LIG d   1      -5.336  76.021 117.774  0.00  0.00     0.149 HD
ENDBRANCH   6  13
BRANCH   5  18
ATOM     18  N   LIG d   1      -6.944  79.139 117.277  0.00  0.00     0.381 N 
ATOM     19  H   LIG d   1      -6.471  79.830 117.825  0.00  0.00    -0.090 HD
ATOM     20  H   LIG d   1      -7.754  79.565 116.863  0.00  0.00    -0.090 HD
ATOM     21  H   LIG d   1      -6.337  78.798 116.563  0.00  0.00    -0.090 HD
ENDBRANCH   5  18
BRANCH   3  22
ATOM     22  C   LIG d   1     -10.340  77.590 120.278  0.00  0.00     0.382 C 
ATOM     23  O   LIG d   1     -10.665  78.787 120.468  0.00  0.00    -0.241 OA
ATOM     24  O   LIG d   1     -10.843  76.697 120.986  0.00  0.00    -0.241 OA
ENDBRANCH   3  22
TORSDOF 7
ENDMDL
MODEL 3
REMARK VINA RESULT:      -5.6     17.834     19.871
REMARK  7 active torsions:
REMARK  status: ('A' for Active; 'I' for Inactive)
REMARK    1  A    between atoms: C_2  and  C_3 
REMARK    2  A    between atoms: C_3  and  O_6 
REMARK    3  A    between atoms: C_3  and  C_4 
REMARK    4  A    between atoms: C_7  and  O_6 
REMARK    5  A    between atoms: C_9  and  C_10 
REMARK    6  A    between atoms: N_15  and  C_14 
REMARK    7  A    between atoms: N_20  and  C_19 
REMARK       I    between atoms: C_22  and  N_20 
ROOT
ATOM      1  C   LIG d   1      -7.068  76.736 117.553  0.00  0.00     0.161 C 
ATOM      2  C   LIG d   1      -8.343  77.252 117.836  0.00  0.00     0.016 C 
ATOM      3  C   LIG d   1      -8.617  78.635 117.943  0.00  0.00     0.038 C 
ATOM      4  C   LIG d   1      -7.658  79.608 117.623  0.00  0.00     0.028 C 
ATOM      5  C   LIG d   1      -6.223  79.132 117.823  0.00  0.00    -0.047 C 
ATOM      6  C   LIG d   1      -6.034  77.784 117.091  0.00  0.00     0.091 C 
ENDROOT
BRANCH   1   7
ATOM      7  O   LIG d   1      -7.174  75.676 116.582  0.00  0.00    -0.368 OA
BRANCH   7   8
ATOM      8  C   LIG d   1      -6.939  74.334 117.076  0.00  0.00     0.119 C 
BRANCH   8   9
ATOM      9  C   LIG d   1      -6.068  73.604 116.035  0.00  0.00     0.028 C 
ATOM     10  C   LIG d   1      -5.390  74.574 115.053  0.00  0.00     0.006 C 
ENDBRANCH   8   9
BRANCH   8  11
ATOM     11  C   LIG d   1      -8.242  73.531 117.149  0.00  0.00     0.028 C 
ATOM     12  C   LIG d   1      -8.533  72.995 118.559  0.00  0.00     0.006 C 
ENDBRANCH   8  11
ENDBRANCH   7   8
ENDBRANCH   1   7
BRANCH   6  13
ATOM     13  N   LIG d   1      -4.681  77.207 117.306  0.00  0.00    -0.311 N 
ATOM     14  C   LIG d   1      -3.654  77.420 116.486  0.00  0.00     0.210 C 
ATOM     15  C   LIG d   1      -2.353  76.715 116.881  0.00  0.00     0.109 C 
ATOM     16  O   LIG d   1      -3.688  78.153 115.485  0.00  0.00    -0.276 OA
ATOM     17  H   LIG d   1      -4.557  76.625 118.112  0.00  0.00     0.149 HD
ENDBRANCH   6  13
BRANCH   5  18
ATOM     18  N   LIG d   1      -5.328  80.193 117.323  0.00  0.00     0.381 N 
ATOM     19  H   LIG d   1      -5.844  81.041 117.201  0.00  0.00    -0.090 HD
ATOM     20  H   LIG d   1      -4.963  79.915 116.429  0.00  0.00    -0.090 HD
ATOM     21  H   LIG d   1      -4.581  80.339 117.965  0.00  0.00    -0.090 HD
ENDBRANCH   5  18
BRANCH   3  22
ATOM     22  C   LIG d   1      -9.851  79.057 118.413  0.00  0.00     0.382 C 
ATOM     23  O   LIG d   1     -10.204  80.252 118.266  0.00  0.00    -0.241 OA
ATOM     24  O   LIG d   1     -10.599  78.268 119.022  0.00  0.00    -0.241 OA
ENDBRANCH   3  22
TORSDOF 7
ENDMDL
MODEL 4
REMARK VINA RESULT:      -5.5     32.503     34.186
REMARK  7 active torsions:
REMARK  status: ('A' for Active; 'I' for Inactive)
REMARK    1  A    between atoms: C_2  and  C_3 
REMARK    2  A    between atoms: C_3  and  O_6 
REMARK    3  A    between atoms: C_3  and  C_4 
REMARK    4  A    between atoms: C_7  and  O_6 
REMARK    5  A    between atoms: C_9  and  C_10 
REMARK    6  A    between atoms: N_15  and  C_14 
REMARK    7  A    between atoms: N_20  and  C_19 
REMARK       I    between atoms: C_22  and  N_20 
ROOT
ATOM      1  C   LIG d   1      -4.440  92.053 117.976  0.00  0.00     0.161 C 
ATOM      2  C   LIG d   1      -4.988  91.328 116.905  0.00  0.00     0.016 C 
ATOM      3  C   LIG d   1      -6.242  91.627 116.325  0.00  0.00     0.038 C 
ATOM      4  C   LIG d   1      -6.970  92.772 116.680  0.00  0.00     0.028 C 
ATOM      5  C   LIG d   1      -6.695  93.247 118.103  0.00  0.00    -0.047 C 
ATOM      6  C   LIG d   1      -5.168  93.374 118.303  0.00  0.00     0.091 C 
ENDROOT
BRANCH   1   7
ATOM      7  O   LIG d   1      -3.040  92.299 117.734  0.00  0.00    -0.368 OA
BRANCH   7   8
ATOM      8  C   LIG d   1      -2.110  91.494 118.498  0.00  0.00     0.119 C 
BRANCH   8   9
ATOM      9  C   LIG d   1      -0.888  92.376 118.819  0.00  0.00     0.028 C 
ATOM     10  C   LIG d   1      -0.086  92.748 117.561  0.00  0.00     0.006 C 
ENDBRANCH   8   9
BRANCH   8  11
ATOM     11  C   LIG d   1      -1.563  90.332 117.664  0.00  0.00     0.028 C 
ATOM     12  C   LIG d   1      -2.212  88.985 118.020  0.00  0.00     0.006 C 
ENDBRANCH   8  11
ENDBRANCH   7   8
ENDBRANCH   1   7
BRANCH   6  13
ATOM     13  N   LIG d   1      -4.809  93.753 119.695  0.00  0.00    -0.311 N 
ATOM     14  C   LIG d   1      -4.597  95.009 120.081  0.00  0.00     0.210 C 
ATOM     15  C   LIG d   1      -4.217  95.178 121.555  0.00  0.00     0.109 C 
ATOM     16  O   LIG d   1      -4.718  96.004 119.350  0.00  0.00    -0.276 OA
ATOM     17  H   LIG d   1      -4.720  93.010 120.361  0.00  0.00     0.149 HD
ENDBRANCH   6  13
BRANCH   5  18
ATOM     18  N   LIG d   1      -7.411  94.523 118.292  0.00  0.00     0.381 N 
ATOM     19  H   LIG d   1      -8.088  94.426 119.023  0.00  0.00    -0.090 HD
ATOM     20  H   LIG d   1      -7.895  94.753 117.443  0.00  0.00    -0.090 HD
ATOM     21  H   LIG d   1      -6.765  95.245 118.522  0.00  0.00    -0.090 HD
ENDBRANCH   5  18
BRANCH   3  22
ATOM     22  C   LIG d   1      -6.799  90.751 115.405  0.00  0.00     0.382 C 
ATOM     23  O   LIG d   1      -7.978  90.923 115.010  0.00  0.00    -0.241 OA
ATOM     24  O   LIG d   1      -6.153  89.767 114.998  0.00  0.00    -0.241 OA
ENDBRANCH   3  22
TORSDOF 7
ENDMDL
MODEL 5
REMARK VINA RESULT:      -5.4      2.931      4.194
REMARK  7 active torsions:
REMARK  status: ('A' for Active; 'I' for Inactive)
REMARK    1  A    between atoms: C_2  and  C_3 
REMARK    2  A    between atoms: C_3  and  O_6 
REMARK    3  A    between atoms: C_3  and  C_4 
REMARK    4  A    between atoms: C_7  and  O_6 
REMARK    5  A    between atoms: C_9  and  C_10 
REMARK    6  A    between atoms: N_15  and  C_14 
REMARK    7  A    between atoms: N_20  and  C_19 
REMARK       I    between atoms: C_22  and  N_20 
ROOT
ATOM      1  C   LIG d   1      -0.286  60.520 119.462  0.00  0.00     0.161 C 
ATOM      2  C   LIG d   1      -1.685  60.448 119.364  0.00  0.00     0.016 C 
ATOM      3  C   LIG d   1      -2.359  59.857 118.271  0.00  0.00     0.038 C 
ATOM      4  C   LIG d   1      -1.673  59.158 117.267  0.00  0.00     0.028 C 
ATOM      5  C   LIG d   1      -0.241  59.642 117.063  0.00  0.00    -0.047 C 
ATOM      6  C   LIG d   1       0.480  59.666 118.430  0.00  0.00     0.091 C 
ENDROOT
BRANCH   1   7
ATOM      7  O   LIG d   1       0.129  60.180 120.800  0.00  0.00    -0.368 OA
BRANCH   7   8
ATOM      8  C   LIG d   1       0.280  61.288 121.721  0.00  0.00     0.119 C 
BRANCH   8   9
ATOM      9  C   LIG d   1       1.559  61.037 122.543  0.00  0.00     0.028 C 
ATOM     10  C   LIG d   1       2.802  60.863 121.654  0.00  0.00     0.006 C 
ENDBRANCH   8   9
BRANCH   8  11
ATOM     11  C   LIG d   1      -0.859  61.321 122.745  0.00  0.00     0.028 C 
ATOM     12  C   LIG d   1      -0.641  62.370 123.847  0.00  0.00     0.006 C 
ENDBRANCH   8  11
ENDBRANCH   7   8
ENDBRANCH   1   7
BRANCH   6  13
ATOM     13  N   LIG d   1       1.861  60.207 118.334  0.00  0.00    -0.311 N 
ATOM     14  C   LIG d   1       2.947  59.438 118.283  0.00  0.00     0.210 C 
ATOM     15  C   LIG d   1       4.274  60.199 118.206  0.00  0.00     0.109 C 
ATOM     16  O   LIG d   1       2.936  58.198 118.263  0.00  0.00    -0.276 OA
ATOM     17  H   LIG d   1       1.960  61.203 118.313  0.00  0.00     0.149 HD
ENDBRANCH   6  13
BRANCH   5  18
ATOM     18  N   LIG d   1       0.399  58.740 116.087  0.00  0.00     0.381 N 
ATOM     19  H   LIG d   1      -0.212  58.594 115.309  0.00  0.00    -0.090 HD
ATOM     20  H   LIG d   1       0.567  57.852 116.527  0.00  0.00    -0.090 HD
ATOM     21  H   LIG d   1       1.260  59.132 115.774  0.00  0.00    -0.090 HD
ENDBRANCH   5  18
BRANCH   3  22
ATOM     22  C   LIG d   1      -3.734  59.996 118.155  0.00  0.00     0.382 C 
ATOM     23  O   LIG d   1      -4.493  59.087 118.569  0.00  0.00    -0.241 OA
ATOM     24  O   LIG d   1      -4.223  60.999 117.602  0.00  0.00    -0.241 OA
ENDBRANCH   3  22
TORSDOF 7
ENDMDL
MODEL 6
REMARK VINA RESULT:      -5.4      2.379      3.697
REMARK  7 active torsions:
REMARK  status: ('A' for Active; 'I' for Inactive)
REMARK    1  A    between atoms: C_2  and  C_3 
REMARK    2  A    between atoms: C_3  and  O_6 
REMARK    3  A    between atoms: C_3  and  C_4 
REMARK    4  A    between atoms: C_7  and  O_6 
REMARK    5  A    between atoms: C_9  and  C_10 
REMARK    6  A    between atoms: N_15  and  C_14 
REMARK    7  A    between atoms: N_20  and  C_19 
REMARK       I    between atoms: C_22  and  N_20 
ROOT
ATOM      1  C   LIG d   1      -0.429  58.356 118.807  0.00  0.00     0.161 C 
ATOM      2  C   LIG d   1      -0.143  58.866 117.529  0.00  0.00     0.016 C 
ATOM      3  C   LIG d   1      -1.077  59.590 116.754  0.00  0.00     0.038 C 
ATOM      4  C   LIG d   1      -2.320  59.987 117.270  0.00  0.00     0.028 C 
ATOM      5  C   LIG d   1      -2.844  59.063 118.364  0.00  0.00    -0.047 C 
ATOM      6  C   LIG d   1      -1.742  58.874 119.431  0.00  0.00     0.091 C 
ENDROOT
BRANCH   1   7
ATOM      7  O   LIG d   1       0.680  58.607 119.693  0.00  0.00    -0.368 OA
BRANCH   7   8
ATOM      8  C   LIG d   1       1.370  59.868 119.508  0.00  0.00     0.119 C 
BRANCH   8   9
ATOM      9  C   LIG d   1       2.876  59.559 119.401  0.00  0.00     0.028 C 
ATOM     10  C   LIG d   1       3.460  59.951 118.033  0.00  0.00     0.006 C 
ENDBRANCH   8   9
BRANCH   8  11
ATOM     11  C   LIG d   1       1.227  60.766 120.740  0.00  0.00     0.028 C 
ATOM     12  C   LIG d   1       2.476  60.755 121.635  0.00  0.00     0.006 C 
ENDBRANCH   8  11
ENDBRANCH   7   8
ENDBRANCH   1   7
BRANCH   6  13
ATOM     13  N   LIG d   1      -2.142  57.917 120.496  0.00  0.00    -0.311 N 
ATOM     14  C   LIG d   1      -2.664  58.294 121.661  0.00  0.00     0.210 C 
ATOM     15  C   LIG d   1      -2.988  57.148 122.626  0.00  0.00     0.109 C 
ATOM     16  O   LIG d   1      -2.921  59.466 121.976  0.00  0.00    -0.276 OA
ATOM     17  H   LIG d   1      -1.997  56.944 120.312  0.00  0.00     0.149 HD
ENDBRANCH   6  13
BRANCH   5  18
ATOM     18  N   LIG d   1      -4.075  59.669 118.906  0.00  0.00     0.381 N 
ATOM     19  H   LIG d   1      -4.832  59.018 118.836  0.00  0.00    -0.090 HD
ATOM     20  H   LIG d   1      -4.306  60.481 118.361  0.00  0.00    -0.090 HD
ATOM     21  H   LIG d   1      -3.938  59.927 119.859  0.00  0.00    -0.090 HD
ENDBRANCH   5  18
BRANCH   3  22
ATOM     22  C   LIG d   1      -0.786  59.891 115.432  0.00  0.00     0.382 C 
ATOM     23  O   LIG d   1      -1.607  60.544 114.742  0.00  0.00    -0.241 OA
ATOM     24  O   LIG d   1       0.266  59.481 114.907  0.00  0.00    -0.241 OA
ENDBRANCH   3  22
TORSDOF 7
ENDMDL
MODEL 7
REMARK VINA RESULT:      -5.4     33.420     35.077
REMARK  7 active torsions:
REMARK  status: ('A' for Active; 'I' for Inactive)
REMARK    1  A    between atoms: C_2  and  C_3 
REMARK    2  A    between atoms: C_3  and  O_6 
REMARK    3  A    between atoms: C_3  and  C_4 
REMARK    4  A    between atoms: C_7  and  O_6 
REMARK    5  A    between atoms: C_9  and  C_10 
REMARK    6  A    between atoms: N_15  and  C_14 
REMARK    7  A    between atoms: N_20  and  C_19 
REMARK       I    between atoms: C_22  and  N_20 
ROOT
ATOM      1  C   LIG d   1      -7.315  93.231 117.759  0.00  0.00     0.161 C 
ATOM      2  C   LIG d   1      -7.568  92.237 116.799  0.00  0.00     0.016 C 
ATOM      3  C   LIG d   1      -6.578  91.352 116.315  0.00  0.00     0.038 C 
ATOM      4  C   LIG d   1      -5.292  91.301 116.873  0.00  0.00     0.028 C 
ATOM      5  C   LIG d   1      -4.847  92.623 117.491  0.00  0.00    -0.047 C 
ATOM      6  C   LIG d   1      -5.945  93.118 118.460  0.00  0.00     0.091 C 
ENDROOT
BRANCH   1   7
ATOM      7  O   LIG d   1      -8.377  93.251 118.733  0.00  0.00    -0.368 OA
BRANCH   7   8
ATOM      8  C   LIG d   1      -9.238  94.416 118.713  0.00  0.00     0.119 C 
BRANCH   8   9
ATOM      9  C   LIG d   1      -8.650  95.409 117.691  0.00  0.00     0.028 C 
ATOM     10  C   LIG d   1      -8.220  96.734 118.342  0.00  0.00     0.006 C 
ENDBRANCH   8   9
BRANCH   8  11
ATOM     11  C   LIG d   1      -9.211  95.152 120.056  0.00  0.00     0.028 C 
ATOM     12  C   LIG d   1      -8.678  94.280 121.203  0.00  0.00     0.006 C 
ENDBRANCH   8  11
ENDBRANCH   7   8
ENDBRANCH   1   7
BRANCH   6  13
ATOM     13  N   LIG d   1      -5.628  94.447 119.044  0.00  0.00    -0.311 N 
ATOM     14  C   LIG d   1      -5.062  94.607 120.239  0.00  0.00     0.210 C 
ATOM     15  C   LIG d   1      -4.840  96.063 120.660  0.00  0.00     0.109 C 
ATOM     16  O   LIG d   1      -4.694  93.680 120.977  0.00  0.00    -0.276 OA
ATOM     17  H   LIG d   1      -5.865  95.253 118.499  0.00  0.00     0.149 HD
ENDBRANCH   6  13
BRANCH   5  18
ATOM     18  N   LIG d   1      -3.551  92.390 118.155  0.00  0.00     0.381 N 
ATOM     19  H   LIG d   1      -3.678  91.790 118.945  0.00  0.00    -0.090 HD
ATOM     20  H   LIG d   1      -3.191  93.270 118.482  0.00  0.00    -0.090 HD
ATOM     21  H   LIG d   1      -2.909  91.978 117.515  0.00  0.00    -0.090 HD
ENDBRANCH   5  18
BRANCH   3  22
ATOM     22  C   LIG d   1      -6.859  90.531 115.233  0.00  0.00     0.382 C 
ATOM     23  O   LIG d   1      -7.969  90.616 114.653  0.00  0.00    -0.241 OA
ATOM     24  O   LIG d   1      -6.034  89.677 114.857  0.00  0.00    -0.241 OA
ENDBRANCH   3  22
TORSDOF 7
ENDMDL
MODEL 8
REMARK VINA RESULT:      -5.3     18.469     20.547
REMARK  7 active torsions:
REMARK  status: ('A' for Active; 'I' for Inactive)
REMARK    1  A    between atoms: C_2  and  C_3 
REMARK    2  A    between atoms: C_3  and  O_6 
REMARK    3  A    between atoms: C_3  and  C_4 
REMARK    4  A    between atoms: C_7  and  O_6 
REMARK    5  A    between atoms: C_9  and  C_10 
REMARK    6  A    between atoms: N_15  and  C_14 
REMARK    7  A    between atoms: N_20  and  C_19 
REMARK       I    between atoms: C_22  and  N_20 
ROOT
ATOM      1  C   LIG d   1      -6.462  77.435 118.227  0.00  0.00     0.161 C 
ATOM      2  C   LIG d   1      -7.842  77.361 118.477  0.00  0.00     0.016 C 
ATOM      3  C   LIG d   1      -8.711  78.473 118.383  0.00  0.00     0.038 C 
ATOM      4  C   LIG d   1      -8.280  79.710 117.881  0.00  0.00     0.028 C 
ATOM      5  C   LIG d   1      -6.792  79.965 118.096  0.00  0.00    -0.047 C 
ATOM      6  C   LIG d   1      -5.993  78.751 117.571  0.00  0.00     0.091 C 
ENDROOT
BRANCH   1   7
ATOM      7  O   LIG d   1      -6.048  76.305 117.434  0.00  0.00    -0.368 OA
BRANCH   7   8
ATOM      8  C   LIG d   1      -7.030  75.783 116.505  0.00  0.00     0.119 C 
BRANCH   8   9
ATOM      9  C   LIG d   1      -7.047  74.250 116.662  0.00  0.00     0.028 C 
ATOM     10  C   LIG d   1      -8.272  73.755 117.450  0.00  0.00     0.006 C 
ENDBRANCH   8   9
BRANCH   8  11
ATOM     11  C   LIG d   1      -6.615  76.038 115.053  0.00  0.00     0.028 C 
ATOM     12  C   LIG d   1      -5.218  75.486 114.728  0.00  0.00     0.006 C 
ENDBRANCH   8  11
ENDBRANCH   7   8
ENDBRANCH   1   7
BRANCH   6  13
ATOM     13  N   LIG d   1      -4.533  78.882 117.820  0.00  0.00    -0.311 N 
ATOM     14  C   LIG d   1      -3.616  78.796 116.858  0.00  0.00     0.210 C 
ATOM     15  C   LIG d   1      -2.166  78.940 117.333  0.00  0.00     0.109 C 
ATOM     16  O   LIG d   1      -3.866  78.647 115.653  0.00  0.00    -0.276 OA
ATOM     17  H   LIG d   1      -4.244  79.036 118.766  0.00  0.00     0.149 HD
ENDBRANCH   6  13
BRANCH   5  18
ATOM     18  N   LIG d   1      -6.451  81.224 117.406  0.00  0.00     0.381 N 
ATOM     19  H   LIG d   1      -5.832  81.766 117.975  0.00  0.00    -0.090 HD
ATOM     20  H   LIG d   1      -7.293  81.754 117.262  0.00  0.00    -0.090 HD
ATOM     21  H   LIG d   1      -6.020  81.026 116.530  0.00  0.00    -0.090 HD
ENDBRANCH   5  18
BRANCH   3  22
ATOM     22  C   LIG d   1     -10.018  78.363 118.830  0.00  0.00     0.382 C 
ATOM     23  O   LIG d   1     -10.784  77.507 118.326  0.00  0.00    -0.241 OA
ATOM     24  O   LIG d   1     -10.455  79.139 119.701  0.00  0.00    -0.241 OA
ENDBRANCH   3  22
TORSDOF 7
ENDMDL
MODEL 9
REMARK VINA RESULT:      -5.2     18.137     20.042
REMARK  7 active torsions:
REMARK  status: ('A' for Active; 'I' for Inactive)
REMARK    1  A    between atoms: C_2  and  C_3 
REMARK    2  A    between atoms: C_3  and  O_6 
REMARK    3  A    between atoms: C_3  and  C_4 
REMARK    4  A    between atoms: C_7  and  O_6 
REMARK    5  A    between atoms: C_9  and  C_10 
REMARK    6  A    between atoms: N_15  and  C_14 
REMARK    7  A    between atoms: N_20  and  C_19 
REMARK       I    between atoms: C_22  and  N_20 
ROOT
ATOM      1  C   LIG d   1      -6.728  77.585 117.190  0.00  0.00     0.161 C 
ATOM      2  C   LIG d   1      -6.680  78.987 117.257  0.00  0.00     0.016 C 
ATOM      3  C   LIG d   1      -7.722  79.777 117.796  0.00  0.00     0.038 C 
ATOM      4  C   LIG d   1      -8.825  79.205 118.446  0.00  0.00     0.028 C 
ATOM      5  C   LIG d   1      -9.157  77.800 117.953  0.00  0.00    -0.047 C 
ATOM      6  C   LIG d   1      -7.875  76.938 117.995  0.00  0.00     0.091 C 
ENDROOT
BRANCH   1   7
ATOM      7  O   LIG d   1      -5.459  77.032 117.594  0.00  0.00    -0.368 OA
BRANCH   7   8
ATOM      8  C   LIG d   1      -4.534  76.713 116.525  0.00  0.00     0.119 C 
BRANCH   8   9
ATOM      9  C   LIG d   1      -5.355  76.120 115.364  0.00  0.00     0.028 C 
ATOM     10  C   LIG d   1      -5.331  74.583 115.353  0.00  0.00     0.006 C 
ENDBRANCH   8   9
BRANCH   8  11
ATOM     11  C   LIG d   1      -3.562  75.606 116.941  0.00  0.00     0.028 C 
ATOM     12  C   LIG d   1      -2.723  75.981 118.173  0.00  0.00     0.006 C 
ENDBRANCH   8  11
ENDBRANCH   7   8
ENDBRANCH   1   7
BRANCH   6  13
ATOM     13  N   LIG d   1      -8.092  75.573 117.450  0.00  0.00    -0.311 N 
ATOM     14  C   LIG d   1      -8.387  74.519 118.210  0.00  0.00     0.210 C 
ATOM     15  C   LIG d   1      -8.551  73.199 117.449  0.00  0.00     0.109 C 
ATOM     16  O   LIG d   1      -8.561  74.558 119.437  0.00  0.00    -0.276 OA
ATOM     17  H   LIG d   1      -8.002  75.457 116.460  0.00  0.00     0.149 HD
ENDBRANCH   6  13
BRANCH   5  18
ATOM     18  N   LIG d   1     -10.237  77.272 118.808  0.00  0.00     0.381 N 
ATOM     19  H   LIG d   1     -10.385  76.303 118.608  0.00  0.00    -0.090 HD
ATOM     20  H   LIG d   1     -11.086  77.769 118.604  0.00  0.00    -0.090 HD
ATOM     21  H   LIG d   1      -9.999  77.388 119.769  0.00  0.00    -0.090 HD
ENDBRANCH   5  18
BRANCH   3  22
ATOM     22  C   LIG d   1      -7.684  81.155 117.651  0.00  0.00     0.382 C 
ATOM     23  O   LIG d   1      -8.525  81.872 118.246  0.00  0.00    -0.241 OA
ATOM     24  O   LIG d   1      -6.848  81.689 116.897  0.00  0.00    -0.241 OA
ENDBRANCH   3  22
TORSDOF 7
ENDMDL
