MODEL 1
REMARK VINA RESULT:      -5.9      0.000      0.000
REMARK  7 active torsions:
REMARK  status: ('A' for Active; 'I' for Inactive)
REMARK    1  A    between atoms: C_2  and  C_3 
REMARK    2  A    between atoms: C_3  and  O_6 
REMARK    3  A    between atoms: C_3  and  C_4 
REMARK    4  A    between atoms: C_7  and  O_6 
REMARK    5  A    between atoms: C_9  and  C_10 
REMARK    6  A    between atoms: N_15  and  C_14 
REMARK    7  A    between atoms: N_20  and  C_19 
REMARK       I    between atoms: C_22  and  N_20 
ROOT
ATOM      1  C   LIG d   1      -7.058  76.495 116.790  0.00  0.00     0.161 C 
ATOM      2  C   LIG d   1      -5.938  76.036 116.077  0.00  0.00     0.016 C 
ATOM      3  C   LIG d   1      -4.713  76.739 116.015  0.00  0.00     0.038 C 
ATOM      4  C   LIG d   1      -4.475  77.883 116.791  0.00  0.00     0.028 C 
ATOM      5  C   LIG d   1      -5.742  78.659 117.131  0.00  0.00    -0.047 C 
ATOM      6  C   LIG d   1      -6.781  77.685 117.732  0.00  0.00     0.091 C 
ENDROOT
BRANCH   1   7
ATOM      7  O   LIG d   1      -7.654  75.405 117.520  0.00  0.00    -0.368 OA
BRANCH   7   8
ATOM      8  C   LIG d   1      -8.260  74.359 116.723  0.00  0.00     0.119 C 
BRANCH   8   9
ATOM      9  C   LIG d   1      -9.761  74.322 117.071  0.00  0.00     0.028 C 
ATOM     10  C   LIG d   1     -10.222  75.587 117.815  0.00  0.00     0.006 C 
ENDBRANCH   8   9
BRANCH   8  11
ATOM     11  C   LIG d   1      -7.721  72.979 117.109  0.00  0.00     0.028 C 
ATOM     12  C   LIG d   1      -8.388  71.837 116.326  0.00  0.00     0.006 C 
ENDBRANCH   8  11
ENDBRANCH   7   8
ENDBRANCH   1   7
BRANCH   6  13
ATOM     13  N   LIG d   1      -8.081  78.347 118.015  0.00  0.00    -0.311 N 
ATOM     14  C   LIG d   1      -8.399  78.861 119.202  0.00  0.00     0.210 C 
ATOM     15  C   LIG d   1      -9.798  79.480 119.285  0.00  0.00     0.109 C 
ATOM     16  O   LIG d   1      -7.643  78.892 120.185  0.00  0.00    -0.276 OA
ATOM     17  H   LIG d   1      -8.742  78.394 117.265  0.00  0.00     0.149 HD
ENDBRANCH   6  13
BRANCH   5  18
ATOM     18  N   LIG d   1      -5.365  79.745 118.055  0.00  0.00     0.381 N 
ATOM     19  H   LIG d   1      -4.969  79.359 118.888  0.00  0.00    -0.090 HD
ATOM     20  H   LIG d   1      -6.192  80.259 118.307  0.00  0.00    -0.090 HD
ATOM     21  H   LIG d   1      -4.709  80.353 117.617  0.00  0.00    -0.090 HD
ENDBRANCH   5  18
BRANCH   3  22
ATOM     22  C   LIG d   1      -3.724  76.319 115.138  0.00  0.00     0.382 C 
ATOM     23  O   LIG d   1      -3.001  77.165 114.558  0.00  0.00    -0.241 OA
ATOM     24  O   LIG d   1      -3.574  75.108 114.887  0.00  0.00    -0.241 OA
ENDBRANCH   3  22
TORSDOF 7
ENDMDL
MODEL 2
REMARK VINA RESULT:      -5.9      1.637      2.203
REMARK  7 active torsions:
REMARK  status: ('A' for Active; 'I' for Inactive)
REMARK    1  A    between atoms: C_2  and  C_3 
REMARK    2  A    between atoms: C_3  and  O_6 
REMARK    3  A    between atoms: C_3  and  C_4 
REMARK    4  A    between atoms: C_7  and  O_6 
REMARK    5  A    between atoms: C_9  and  C_10 
REMARK    6  A    between atoms: N_15  and  C_14 
REMARK    7  A    between atoms: N_20  and  C_19 
REMARK       I    between atoms: C_22  and  N_20 
ROOT
ATOM      1  C   LIG d   1      -7.783  76.232 117.226  0.00  0.00     0.161 C 
ATOM      2  C   LIG d   1      -6.558  76.434 116.567  0.00  0.00     0.016 C 
ATOM      3  C   LIG d   1      -5.732  77.560 116.788  0.00  0.00     0.038 C 
ATOM      4  C   LIG d   1      -6.004  78.492 117.801  0.00  0.00     0.028 C 
ATOM      5  C   LIG d   1      -7.486  78.598 118.145  0.00  0.00    -0.047 C 
ATOM      6  C   LIG d   1      -8.041  77.181 118.415  0.00  0.00     0.091 C 
ENDROOT
BRANCH   1   7
ATOM      7  O   LIG d   1      -7.889  74.859 117.649  0.00  0.00    -0.368 OA
BRANCH   7   8
ATOM      8  C   LIG d   1      -8.091  73.882 116.597  0.00  0.00     0.119 C 
BRANCH   8   9
ATOM      9  C   LIG d   1      -9.333  73.050 116.971  0.00  0.00     0.028 C 
ATOM     10  C   LIG d   1      -9.100  71.539 116.799  0.00  0.00     0.006 C 
ENDBRANCH   8   9
BRANCH   8  11
ATOM     11  C   LIG d   1      -6.934  72.880 116.538  0.00  0.00     0.028 C 
ATOM     12  C   LIG d   1      -6.040  73.075 115.304  0.00  0.00     0.006 C 
ENDBRANCH   8  11
ENDBRANCH   7   8
ENDBRANCH   1   7
BRANCH   6  13
ATOM     13  N   LIG d   1      -9.504  77.186 118.676  0.00  0.00    -0.311 N 
ATOM     14  C   LIG d   1     -10.031  77.203 119.899  0.00  0.00     0.210 C 
ATOM     15  C   LIG d   1     -11.562  77.185 119.945  0.00  0.00     0.109 C 
ATOM     16  O   LIG d   1      -9.375  77.264 120.950  0.00  0.00    -0.276 OA
ATOM     17  H   LIG d   1     -10.110  77.170 117.879  0.00  0.00     0.149 HD
ENDBRANCH   6  13
BRANCH   5  18
ATOM     18  N   LIG d   1      -7.611  79.499 119.306  0.00  0.00     0.381 N 
ATOM     19  H   LIG d   1      -8.344  80.160 119.144  0.00  0.00    -0.090 HD
ATOM     20  H   LIG d   1      -6.749  80.005 119.419  0.00  0.00    -0.090 HD
ATOM     21  H   LIG d   1      -7.805  78.971 120.128  0.00  0.00    -0.090 HD
ENDBRANCH   5  18
BRANCH   3  22
ATOM     22  C   LIG d   1      -4.640  77.784 115.963  0.00  0.00     0.382 C 
ATOM     23  O   LIG d   1      -4.117  76.827 115.343  0.00  0.00    -0.241 OA
ATOM     24  O   LIG d   1      -4.144  78.922 115.867  0.00  0.00    -0.241 OA
ENDBRANCH   3  22
TORSDOF 7
ENDMDL
MODEL 3
REMARK VINA RESULT:      -5.8      2.276      5.085
REMARK  7 active torsions:
REMARK  status: ('A' for Active; 'I' for Inactive)
REMARK    1  A    between atoms: C_2  and  C_3 
REMARK    2  A    between atoms: C_3  and  O_6 
REMARK    3  A    between atoms: C_3  and  C_4 
REMARK    4  A    between atoms: C_7  and  O_6 
REMARK    5  A    between atoms: C_9  and  C_10 
REMARK    6  A    between atoms: N_15  and  C_14 
REMARK    7  A    between atoms: N_20  and  C_19 
REMARK       I    between atoms: C_22  and  N_20 
ROOT
ATOM      1  C   LIG d   1      -7.772  77.378 118.122  0.00  0.00     0.161 C 
ATOM      2  C   LIG d   1      -7.655  76.111 117.526  0.00  0.00     0.016 C 
ATOM      3  C   LIG d   1      -8.718  75.181 117.459  0.00  0.00     0.038 C 
ATOM      4  C   LIG d   1     -10.022  75.516 117.852  0.00  0.00     0.028 C 
ATOM      5  C   LIG d   1     -10.071  76.602 118.922  0.00  0.00    -0.047 C 
ATOM      6  C   LIG d   1      -9.217  77.803 118.458  0.00  0.00     0.091 C 
ENDROOT
BRANCH   1   7
ATOM      7  O   LIG d   1      -7.138  78.370 117.291  0.00  0.00    -0.368 OA
BRANCH   7   8
ATOM      8  C   LIG d   1      -5.954  79.000 117.841  0.00  0.00     0.119 C 
BRANCH   8   9
ATOM      9  C   LIG d   1      -6.259  80.502 117.997  0.00  0.00     0.028 C 
ATOM     10  C   LIG d   1      -5.841  81.046 119.373  0.00  0.00     0.006 C 
ENDBRANCH   8   9
BRANCH   8  11
ATOM     11  C   LIG d   1      -4.778  78.924 116.863  0.00  0.00     0.028 C 
ATOM     12  C   LIG d   1      -4.339  77.481 116.569  0.00  0.00     0.006 C 
ENDBRANCH   8  11
ENDBRANCH   7   8
ENDBRANCH   1   7
BRANCH   6  13
ATOM     13  N   LIG d   1      -9.143  78.876 119.483  0.00  0.00    -0.311 N 
ATOM     14  C   LIG d   1      -9.662  80.091 119.312  0.00  0.00     0.210 C 
ATOM     15  C   LIG d   1      -9.457  81.053 120.486  0.00  0.00     0.109 C 
ATOM     16  O   LIG d   1     -10.302  80.452 118.313  0.00  0.00    -0.276 OA
ATOM     17  H   LIG d   1      -8.669  78.659 120.338  0.00  0.00     0.149 HD
ENDBRANCH   6  13
BRANCH   5  18
ATOM     18  N   LIG d   1     -11.489  76.950 119.138  0.00  0.00     0.381 N 
ATOM     19  H   LIG d   1     -11.582  77.481 119.981  0.00  0.00    -0.090 HD
ATOM     20  H   LIG d   1     -12.020  76.103 119.239  0.00  0.00    -0.090 HD
ATOM     21  H   LIG d   1     -11.832  77.476 118.365  0.00  0.00    -0.090 HD
ENDBRANCH   5  18
BRANCH   3  22
ATOM     22  C   LIG d   1      -8.471  73.886 117.030  0.00  0.00     0.382 C 
ATOM     23  O   LIG d   1      -9.406  73.050 116.992  0.00  0.00    -0.241 OA
ATOM     24  O   LIG d   1      -7.317  73.531 116.723  0.00  0.00    -0.241 OA
ENDBRANCH   3  22
TORSDOF 7
ENDMDL
MODEL 4
REMARK VINA RESULT:      -5.8      2.002      4.716
REMARK  7 active torsions:
REMARK  status: ('A' for Active; 'I' for Inactive)
REMARK    1  A    between atoms: C_2  and  C_3 
REMARK    2  A    between atoms: C_3  and  O_6 
REMARK    3  A    between atoms: C_3  and  C_4 
REMARK    4  A    between atoms: C_7  and  O_6 
REMARK    5  A    between atoms: C_9  and  C_10 
REMARK    6  A    between atoms: N_15  and  C_14 
REMARK    7  A    between atoms: N_20  and  C_19 
REMARK       I    between atoms: C_22  and  N_20 
ROOT
ATOM      1  C   LIG d   1      -7.340  76.647 117.584  0.00  0.00     0.161 C 
ATOM      2  C   LIG d   1      -7.424  75.345 117.064  0.00  0.00     0.016 C 
ATOM      3  C   LIG d   1      -8.597  74.558 117.123  0.00  0.00     0.038 C 
ATOM      4  C   LIG d   1      -9.818  75.079 117.575  0.00  0.00     0.028 C 
ATOM      5  C   LIG d   1      -9.657  76.220 118.574  0.00  0.00    -0.047 C 
ATOM      6  C   LIG d   1      -8.693  77.274 117.981  0.00  0.00     0.091 C 
ENDROOT
BRANCH   1   7
ATOM      7  O   LIG d   1      -6.647  77.501 116.653  0.00  0.00    -0.368 OA
BRANCH   7   8
ATOM      8  C   LIG d   1      -5.210  77.330 116.579  0.00  0.00     0.119 C 
BRANCH   8   9
ATOM      9  C   LIG d   1      -4.571  78.727 116.699  0.00  0.00     0.028 C 
ATOM     10  C   LIG d   1      -5.388  79.672 117.596  0.00  0.00     0.006 C 
ENDBRANCH   8   9
BRANCH   8  11
ATOM     11  C   LIG d   1      -4.781  76.804 115.206  0.00  0.00     0.028 C 
ATOM     12  C   LIG d   1      -4.167  75.397 115.273  0.00  0.00     0.006 C 
ENDBRANCH   8  11
ENDBRANCH   7   8
ENDBRANCH   1   7
BRANCH   6  13
ATOM     13  N   LIG d   1      -8.414  78.384 118.928  0.00  0.00    -0.311 N 
ATOM     14  C   LIG d   1      -9.157  79.487 119.005  0.00  0.00     0.210 C 
ATOM     15  C   LIG d   1      -8.683  80.516 120.036  0.00  0.00     0.109 C 
ATOM     16  O   LIG d   1     -10.182  79.697 118.339  0.00  0.00    -0.276 OA
ATOM     17  H   LIG d   1      -7.619  78.283 119.528  0.00  0.00     0.149 HD
ENDBRANCH   6  13
BRANCH   5  18
ATOM     18  N   LIG d   1     -11.001  76.760 118.856  0.00  0.00     0.381 N 
ATOM     19  H   LIG d   1     -11.052  77.713 118.557  0.00  0.00    -0.090 HD
ATOM     20  H   LIG d   1     -11.162  76.730 119.847  0.00  0.00    -0.090 HD
ATOM     21  H   LIG d   1     -11.691  76.219 118.383  0.00  0.00    -0.090 HD
ENDBRANCH   5  18
BRANCH   3  22
ATOM     22  C   LIG d   1      -8.545  73.219 116.764  0.00  0.00     0.382 C 
ATOM     23  O   LIG d   1      -9.472  72.443 117.101  0.00  0.00    -0.241 OA
ATOM     24  O   LIG d   1      -7.562  72.769 116.146  0.00  0.00    -0.241 OA
ENDBRANCH   3  22
TORSDOF 7
ENDMDL
MODEL 5
REMARK VINA RESULT:      -5.6     14.288     17.094
REMARK  7 active torsions:
REMARK  status: ('A' for Active; 'I' for Inactive)
REMARK    1  A    between atoms: C_2  and  C_3 
REMARK    2  A    between atoms: C_3  and  O_6 
REMARK    3  A    between atoms: C_3  and  C_4 
REMARK    4  A    between atoms: C_7  and  O_6 
REMARK    5  A    between atoms: C_9  and  C_10 
REMARK    6  A    between atoms: N_15  and  C_14 
REMARK    7  A    between atoms: N_20  and  C_19 
REMARK       I    between atoms: C_22  and  N_20 
ROOT
ATOM      1  C   LIG d   1      -6.127  93.217 117.531  0.00  0.00     0.161 C 
ATOM      2  C   LIG d   1      -6.945  92.219 116.977  0.00  0.00     0.016 C 
ATOM      3  C   LIG d   1      -6.456  90.967 116.538  0.00  0.00     0.038 C 
ATOM      4  C   LIG d   1      -5.130  90.568 116.764  0.00  0.00     0.028 C 
ATOM      5  C   LIG d   1      -4.155  91.737 116.863  0.00  0.00    -0.047 C 
ATOM      6  C   LIG d   1      -4.698  92.758 117.888  0.00  0.00     0.091 C 
ENDROOT
BRANCH   1   7
ATOM      7  O   LIG d   1      -6.771  93.792 118.686  0.00  0.00    -0.368 OA
BRANCH   7   8
ATOM      8  C   LIG d   1      -7.180  95.177 118.564  0.00  0.00     0.119 C 
BRANCH   8   9
ATOM      9  C   LIG d   1      -6.961  95.846 119.934  0.00  0.00     0.028 C 
ATOM     10  C   LIG d   1      -5.914  95.110 120.786  0.00  0.00     0.006 C 
ENDBRANCH   8   9
BRANCH   8  11
ATOM     11  C   LIG d   1      -8.683  95.292 118.292  0.00  0.00     0.028 C 
ATOM     12  C   LIG d   1      -9.540  94.679 119.411  0.00  0.00     0.006 C 
ENDBRANCH   8  11
ENDBRANCH   7   8
ENDBRANCH   1   7
BRANCH   6  13
ATOM     13  N   LIG d   1      -3.846  93.972 117.984  0.00  0.00    -0.311 N 
ATOM     14  C   LIG d   1      -2.874  94.117 118.883  0.00  0.00     0.210 C 
ATOM     15  C   LIG d   1      -2.130  95.455 118.821  0.00  0.00     0.109 C 
ATOM     16  O   LIG d   1      -2.536  93.252 119.704  0.00  0.00    -0.276 OA
ATOM     17  H   LIG d   1      -4.032  94.712 117.335  0.00  0.00     0.149 HD
ENDBRANCH   6  13
BRANCH   5  18
ATOM     18  N   LIG d   1      -2.838  91.187 117.236  0.00  0.00     0.381 N 
ATOM     19  H   LIG d   1      -2.472  91.688 118.021  0.00  0.00    -0.090 HD
ATOM     20  H   LIG d   1      -2.205  91.306 116.464  0.00  0.00    -0.090 HD
ATOM     21  H   LIG d   1      -2.923  90.220 117.460  0.00  0.00    -0.090 HD
ENDBRANCH   5  18
BRANCH   3  22
ATOM     22  C   LIG d   1      -7.288  90.115 115.829  0.00  0.00     0.382 C 
ATOM     23  O   LIG d   1      -8.140  89.422 116.435  0.00  0.00    -0.241 OA
ATOM     24  O   LIG d   1      -7.167  89.996 114.595  0.00  0.00    -0.241 OA
ENDBRANCH   3  22
TORSDOF 7
ENDMDL
MODEL 6
REMARK VINA RESULT:      -5.5      2.090      5.139
REMARK  7 active torsions:
REMARK  status: ('A' for Active; 'I' for Inactive)
REMARK    1  A    between atoms: C_2  and  C_3 
REMARK    2  A    between atoms: C_3  and  O_6 
REMARK    3  A    between atoms: C_3  and  C_4 
REMARK    4  A    between atoms: C_7  and  O_6 
REMARK    5  A    between atoms: C_9  and  C_10 
REMARK    6  A    between atoms: N_15  and  C_14 
REMARK    7  A    between atoms: N_20  and  C_19 
REMARK       I    between atoms: C_22  and  N_20 
ROOT
ATOM      1  C   LIG d   1      -6.749  77.737 117.629  0.00  0.00     0.161 C 
ATOM      2  C   LIG d   1      -7.129  76.434 117.269  0.00  0.00     0.016 C 
ATOM      3  C   LIG d   1      -8.401  75.887 117.554  0.00  0.00     0.038 C 
ATOM      4  C   LIG d   1      -9.439  76.664 118.089  0.00  0.00     0.028 C 
ATOM      5  C   LIG d   1      -8.946  77.837 118.930  0.00  0.00    -0.047 C 
ATOM      6  C   LIG d   1      -7.904  78.637 118.115  0.00  0.00     0.091 C 
ENDROOT
BRANCH   1   7
ATOM      7  O   LIG d   1      -6.052  78.364 116.534  0.00  0.00    -0.368 OA
BRANCH   7   8
ATOM      8  C   LIG d   1      -4.621  78.524 116.697  0.00  0.00     0.119 C 
BRANCH   8   9
ATOM      9  C   LIG d   1      -3.938  77.345 115.978  0.00  0.00     0.028 C 
ATOM     10  C   LIG d   1      -2.789  76.741 116.803  0.00  0.00     0.006 C 
ENDBRANCH   8   9
BRANCH   8  11
ATOM     11  C   LIG d   1      -4.210  78.396 118.167  0.00  0.00     0.028 C 
ATOM     12  C   LIG d   1      -3.659  79.708 118.748  0.00  0.00     0.006 C 
ENDBRANCH   8  11
ENDBRANCH   7   8
ENDBRANCH   1   7
BRANCH   6  13
ATOM     13  N   LIG d   1      -7.309  79.752 118.895  0.00  0.00    -0.311 N 
ATOM     14  C   LIG d   1      -7.372  81.028 118.517  0.00  0.00     0.210 C 
ATOM     15  C   LIG d   1      -6.675  82.017 119.456  0.00  0.00     0.109 C 
ATOM     16  O   LIG d   1      -7.967  81.438 117.508  0.00  0.00    -0.276 OA
ATOM     17  H   LIG d   1      -6.834  79.513 119.744  0.00  0.00     0.149 HD
ENDBRANCH   6  13
BRANCH   5  18
ATOM     18  N   LIG d   1     -10.123  78.639 119.310  0.00  0.00     0.381 N 
ATOM     19  H   LIG d   1      -9.893  79.236 120.080  0.00  0.00    -0.090 HD
ATOM     20  H   LIG d   1     -10.859  78.020 119.601  0.00  0.00    -0.090 HD
ATOM     21  H   LIG d   1     -10.427  79.187 118.536  0.00  0.00    -0.090 HD
ENDBRANCH   5  18
BRANCH   3  22
ATOM     22  C   LIG d   1      -8.633  74.537 117.339  0.00  0.00     0.382 C 
ATOM     23  O   LIG d   1      -9.780  74.140 117.021  0.00  0.00    -0.241 OA
ATOM     24  O   LIG d   1      -7.720  73.706 117.503  0.00  0.00    -0.241 OA
ENDBRANCH   3  22
TORSDOF 7
ENDMDL
MODEL 7
REMARK VINA RESULT:      -5.4     17.009     19.389
REMARK  7 active torsions:
REMARK  status: ('A' for Active; 'I' for Inactive)
REMARK    1  A    between atoms: C_2  and  C_3 
REMARK    2  A    between atoms: C_3  and  O_6 
REMARK    3  A    between atoms: C_3  and  C_4 
REMARK    4  A    between atoms: C_7  and  O_6 
REMARK    5  A    between atoms: C_9  and  C_10 
REMARK    6  A    between atoms: N_15  and  C_14 
REMARK    7  A    between atoms: N_20  and  C_19 
REMARK       I    between atoms: C_22  and  N_20 
ROOT
ATOM      1  C   LIG d   1       0.953  58.828 120.793  0.00  0.00     0.161 C 
ATOM      2  C   LIG d   1       2.185  58.244 120.456  0.00  0.00     0.016 C 
ATOM      3  C   LIG d   1       2.742  58.296 119.158  0.00  0.00     0.038 C 
ATOM      4  C   LIG d   1       2.171  59.070 118.136  0.00  0.00     0.028 C 
ATOM      5  C   LIG d   1       0.666  59.262 118.291  0.00  0.00    -0.047 C 
ATOM      6  C   LIG d   1       0.370  59.771 119.720  0.00  0.00     0.091 C 
ENDROOT
BRANCH   1   7
ATOM      7  O   LIG d   1       1.066  59.515 122.055  0.00  0.00    -0.368 OA
BRANCH   7   8
ATOM      8  C   LIG d   1       1.700  60.817 122.018  0.00  0.00     0.119 C 
BRANCH   8   9
ATOM      9  C   LIG d   1       2.965  60.740 122.894  0.00  0.00     0.028 C 
ATOM     10  C   LIG d   1       2.869  59.646 123.970  0.00  0.00     0.006 C 
ENDBRANCH   8   9
BRANCH   8  11
ATOM     11  C   LIG d   1       0.818  61.885 122.672  0.00  0.00     0.028 C 
ATOM     12  C   LIG d   1      -0.466  61.304 123.284  0.00  0.00     0.006 C 
ENDBRANCH   8  11
ENDBRANCH   7   8
ENDBRANCH   1   7
BRANCH   6  13
ATOM     13  N   LIG d   1      -1.087  59.906 119.983  0.00  0.00    -0.311 N 
ATOM     14  C   LIG d   1      -1.775  61.022 119.747  0.00  0.00     0.210 C 
ATOM     15  C   LIG d   1      -3.262  60.953 120.107  0.00  0.00     0.109 C 
ATOM     16  O   LIG d   1      -1.301  62.051 119.243  0.00  0.00    -0.276 OA
ATOM     17  H   LIG d   1      -1.557  59.108 120.362  0.00  0.00     0.149 HD
ENDBRANCH   6  13
BRANCH   5  18
ATOM     18  N   LIG d   1       0.226  60.199 117.240  0.00  0.00     0.381 N 
ATOM     19  H   LIG d   1       0.890  60.203 116.491  0.00  0.00    -0.090 HD
ATOM     20  H   LIG d   1       0.183  61.125 117.627  0.00  0.00    -0.090 HD
ATOM     21  H   LIG d   1      -0.670  59.931 116.898  0.00  0.00    -0.090 HD
ENDBRANCH   5  18
BRANCH   3  22
ATOM     22  C   LIG d   1       3.862  57.534 118.859  0.00  0.00     0.382 C 
ATOM     23  O   LIG d   1       4.996  58.069 118.837  0.00  0.00    -0.241 OA
ATOM     24  O   LIG d   1       3.747  56.328 118.569  0.00  0.00    -0.241 OA
ENDBRANCH   3  22
TORSDOF 7
ENDMDL
MODEL 8
REMARK VINA RESULT:      -5.4      2.451      5.096
REMARK  7 active torsions:
REMARK  status: ('A' for Active; 'I' for Inactive)
REMARK    1  A    between atoms: C_2  and  C_3 
REMARK    2  A    between atoms: C_3  and  O_6 
REMARK    3  A    between atoms: C_3  and  C_4 
REMARK    4  A    between atoms: C_7  and  O_6 
REMARK    5  A    between atoms: C_9  and  C_10 
REMARK    6  A    between atoms: N_15  and  C_14 
REMARK    7  A    between atoms: N_20  and  C_19 
REMARK       I    between atoms: C_22  and  N_20 
ROOT
ATOM      1  C   LIG d   1      -7.277  78.553 118.082  0.00  0.00     0.161 C 
ATOM      2  C   LIG d   1      -6.228  78.319 117.177  0.00  0.00     0.016 C 
ATOM      3  C   LIG d   1      -6.079  77.113 116.454  0.00  0.00     0.038 C 
ATOM      4  C   LIG d   1      -7.061  76.112 116.472  0.00  0.00     0.028 C 
ATOM      5  C   LIG d   1      -7.883  76.092 117.757  0.00  0.00    -0.047 C 
ATOM      6  C   LIG d   1      -8.419  77.516 118.031  0.00  0.00     0.091 C 
ENDROOT
BRANCH   1   7
ATOM      7  O   LIG d   1      -7.800  79.883 117.890  0.00  0.00    -0.368 OA
BRANCH   7   8
ATOM      8  C   LIG d   1      -6.900  80.973 118.205  0.00  0.00     0.119 C 
BRANCH   8   9
ATOM      9  C   LIG d   1      -6.473  80.811 119.676  0.00  0.00     0.028 C 
ATOM     10  C   LIG d   1      -5.524  81.929 120.139  0.00  0.00     0.006 C 
ENDBRANCH   8   9
BRANCH   8  11
ATOM     11  C   LIG d   1      -7.617  82.325 118.137  0.00  0.00     0.028 C 
ATOM     12  C   LIG d   1      -9.087  82.199 117.709  0.00  0.00     0.006 C 
ENDBRANCH   8  11
ENDBRANCH   7   8
ENDBRANCH   1   7
BRANCH   6  13
ATOM     13  N   LIG d   1      -9.163  77.604 119.314  0.00  0.00    -0.311 N 
ATOM     14  C   LIG d   1     -10.476  77.400 119.416  0.00  0.00     0.210 C 
ATOM     15  C   LIG d   1     -11.047  77.559 120.828  0.00  0.00     0.109 C 
ATOM     16  O   LIG d   1     -11.215  77.071 118.476  0.00  0.00    -0.276 OA
ATOM     17  H   LIG d   1      -8.635  77.835 120.133  0.00  0.00     0.149 HD
ENDBRANCH   6  13
BRANCH   5  18
ATOM     18  N   LIG d   1      -8.955  75.094 117.585  0.00  0.00     0.381 N 
ATOM     19  H   LIG d   1      -8.664  74.393 116.933  0.00  0.00    -0.090 HD
ATOM     20  H   LIG d   1      -9.769  75.552 117.213  0.00  0.00    -0.090 HD
ATOM     21  H   LIG d   1      -9.173  74.673 118.461  0.00  0.00    -0.090 HD
ENDBRANCH   5  18
BRANCH   3  22
ATOM     22  C   LIG d   1      -4.918  76.884 115.731  0.00  0.00     0.382 C 
ATOM     23  O   LIG d   1      -4.453  75.722 115.643  0.00  0.00    -0.241 OA
ATOM     24  O   LIG d   1      -4.305  77.832 115.204  0.00  0.00    -0.241 OA
ENDBRANCH   3  22
TORSDOF 7
ENDMDL
MODEL 9
REMARK VINA RESULT:      -5.4      1.648      2.018
REMARK  7 active torsions:
REMARK  status: ('A' for Active; 'I' for Inactive)
REMARK    1  A    between atoms: C_2  and  C_3 
REMARK    2  A    between atoms: C_3  and  O_6 
REMARK    3  A    between atoms: C_3  and  C_4 
REMARK    4  A    between atoms: C_7  and  O_6 
REMARK    5  A    between atoms: C_9  and  C_10 
REMARK    6  A    between atoms: N_15  and  C_14 
REMARK    7  A    between atoms: N_20  and  C_19 
REMARK       I    between atoms: C_22  and  N_20 
ROOT
ATOM      1  C   LIG d   1      -7.394  78.007 117.707  0.00  0.00     0.161 C 
ATOM      2  C   LIG d   1      -6.258  77.613 116.980  0.00  0.00     0.016 C 
ATOM      3  C   LIG d   1      -5.028  78.309 117.019  0.00  0.00     0.038 C 
ATOM      4  C   LIG d   1      -4.804  79.369 117.911  0.00  0.00     0.028 C 
ATOM      5  C   LIG d   1      -6.076  80.116 118.296  0.00  0.00    -0.047 C 
ATOM      6  C   LIG d   1      -7.135  79.095 118.771  0.00  0.00     0.091 C 
ENDROOT
BRANCH   1   7
ATOM      7  O   LIG d   1      -8.013  76.854 118.311  0.00  0.00    -0.368 OA
BRANCH   7   8
ATOM      8  C   LIG d   1      -8.736  75.976 117.413  0.00  0.00     0.119 C 
BRANCH   8   9
ATOM      9  C   LIG d   1     -10.202  75.937 117.885  0.00  0.00     0.028 C 
ATOM     10  C   LIG d   1     -10.410  76.677 119.217  0.00  0.00     0.006 C 
ENDBRANCH   8   9
BRANCH   8  11
ATOM     11  C   LIG d   1      -8.236  74.532 117.523  0.00  0.00     0.028 C 
ATOM     12  C   LIG d   1      -9.262  73.507 117.015  0.00  0.00     0.006 C 
ENDBRANCH   8  11
ENDBRANCH   7   8
ENDBRANCH   1   7
BRANCH   6  13
ATOM     13  N   LIG d   1      -8.439  79.735 119.086  0.00  0.00    -0.311 N 
ATOM     14  C   LIG d   1      -8.910  80.797 118.436  0.00  0.00     0.210 C 
ATOM     15  C   LIG d   1     -10.265  81.311 118.933  0.00  0.00     0.109 C 
ATOM     16  O   LIG d   1      -8.351  81.343 117.473  0.00  0.00    -0.276 OA
ATOM     17  H   LIG d   1      -8.973  79.337 119.833  0.00  0.00     0.149 HD
ENDBRANCH   6  13
BRANCH   5  18
ATOM     18  N   LIG d   1      -5.718  81.102 119.333  0.00  0.00     0.381 N 
ATOM     19  H   LIG d   1      -6.469  81.751 119.457  0.00  0.00    -0.090 HD
ATOM     20  H   LIG d   1      -4.907  81.613 119.030  0.00  0.00    -0.090 HD
ATOM     21  H   LIG d   1      -5.525  80.638 120.193  0.00  0.00    -0.090 HD
ENDBRANCH   5  18
BRANCH   3  22
ATOM     22  C   LIG d   1      -4.019  77.972 116.130  0.00  0.00     0.382 C 
ATOM     23  O   LIG d   1      -3.731  78.747 115.186  0.00  0.00    -0.241 OA
ATOM     24  O   LIG d   1      -3.423  76.884 116.234  0.00  0.00    -0.241 OA
ENDBRANCH   3  22
TORSDOF 7
ENDMDL
