MODEL 1
REMARK VINA RESULT:      -5.4      0.000      0.000
REMARK  7 active torsions:
REMARK  status: ('A' for Active; 'I' for Inactive)
REMARK    1  A    between atoms: C_2  and  C_3 
REMARK    2  A    between atoms: C_3  and  O_6 
REMARK    3  A    between atoms: C_3  and  C_4 
REMARK    4  A    between atoms: C_7  and  O_6 
REMARK    5  A    between atoms: C_9  and  C_10 
REMARK    6  A    between atoms: N_15  and  C_14 
REMARK    7  A    between atoms: N_20  and  C_19 
REMARK       I    between atoms: C_22  and  N_20 
ROOT
ATOM      1  C   LIG d   1      -1.534  60.734 119.484  0.00  0.00     0.161 C 
ATOM      2  C   LIG d   1      -0.192  60.793 119.073  0.00  0.00     0.016 C 
ATOM      3  C   LIG d   1       0.869  60.199 119.794  0.00  0.00     0.038 C 
ATOM      4  C   LIG d   1       0.640  59.371 120.903  0.00  0.00     0.028 C 
ATOM      5  C   LIG d   1      -0.651  59.697 121.646  0.00  0.00    -0.047 C 
ATOM      6  C   LIG d   1      -1.816  59.741 120.631  0.00  0.00     0.091 C 
ENDROOT
BRANCH   1   7
ATOM      7  O   LIG d   1      -2.379  60.446 118.353  0.00  0.00    -0.368 OA
BRANCH   7   8
ATOM      8  C   LIG d   1      -2.680  59.048 118.122  0.00  0.00     0.119 C 
BRANCH   8   9
ATOM      9  C   LIG d   1      -2.082  58.666 116.754  0.00  0.00     0.028 C 
ATOM     10  C   LIG d   1      -1.999  59.865 115.794  0.00  0.00     0.006 C 
ENDBRANCH   8   9
BRANCH   8  11
ATOM     11  C   LIG d   1      -4.188  58.817 117.984  0.00  0.00     0.028 C 
ATOM     12  C   LIG d   1      -5.001  60.117 118.089  0.00  0.00     0.006 C 
ENDBRANCH   8  11
ENDBRANCH   7   8
ENDBRANCH   1   7
BRANCH   6  13
ATOM     13  N   LIG d   1      -3.102  60.137 121.262  0.00  0.00    -0.311 N 
ATOM     14  C   LIG d   1      -4.016  59.261 121.676  0.00  0.00     0.210 C 
ATOM     15  C   LIG d   1      -5.280  59.881 122.280  0.00  0.00     0.109 C 
ATOM     16  O   LIG d   1      -3.886  58.028 121.629  0.00  0.00    -0.276 OA
ATOM     17  H   LIG d   1      -3.276  61.117 121.368  0.00  0.00     0.149 HD
ENDBRANCH   6  13
BRANCH   5  18
ATOM     18  N   LIG d   1      -0.834  58.673 122.692  0.00  0.00     0.381 N 
ATOM     19  H   LIG d   1      -1.751  58.750 123.084  0.00  0.00    -0.090 HD
ATOM     20  H   LIG d   1      -0.164  58.832 123.423  0.00  0.00    -0.090 HD
ATOM     21  H   LIG d   1      -0.705  57.764 122.305  0.00  0.00    -0.090 HD
ENDBRANCH   5  18
BRANCH   3  22
ATOM     22  C   LIG d   1       2.181  60.464 119.429  0.00  0.00     0.382 C 
ATOM     23  O   LIG d   1       2.425  61.030 118.337  0.00  0.00    -0.241 OA
ATOM     24  O   LIG d   1       3.124  60.104 120.159  0.00  0.00    -0.241 OA
ENDBRANCH   3  22
TORSDOF 7
ENDMDL
MODEL 2
REMARK VINA RESULT:      -5.2      2.761      4.515
REMARK  7 active torsions:
REMARK  status: ('A' for Active; 'I' for Inactive)
REMARK    1  A    between atoms: C_2  and  C_3 
REMARK    2  A    between atoms: C_3  and  O_6 
REMARK    3  A    between atoms: C_3  and  C_4 
REMARK    4  A    between atoms: C_7  and  O_6 
REMARK    5  A    between atoms: C_9  and  C_10 
REMARK    6  A    between atoms: N_15  and  C_14 
REMARK    7  A    between atoms: N_20  and  C_19 
REMARK       I    between atoms: C_22  and  N_20 
ROOT
ATOM      1  C   LIG d   1      -2.123  58.385 120.357  0.00  0.00     0.161 C 
ATOM      2  C   LIG d   1      -2.520  59.470 121.156  0.00  0.00     0.016 C 
ATOM      3  C   LIG d   1      -1.943  60.757 121.064  0.00  0.00     0.038 C 
ATOM      4  C   LIG d   1      -1.028  61.089 120.054  0.00  0.00     0.028 C 
ATOM      5  C   LIG d   1      -0.226  59.894 119.547  0.00  0.00    -0.047 C 
ATOM      6  C   LIG d   1      -1.204  58.756 119.174  0.00  0.00     0.091 C 
ENDROOT
BRANCH   1   7
ATOM      7  O   LIG d   1      -3.285  57.675 119.885  0.00  0.00    -0.368 OA
BRANCH   7   8
ATOM      8  C   LIG d   1      -3.671  57.926 118.511  0.00  0.00     0.119 C 
BRANCH   8   9
ATOM      9  C   LIG d   1      -5.007  58.693 118.539  0.00  0.00     0.028 C 
ATOM     10  C   LIG d   1      -4.857  60.151 118.074  0.00  0.00     0.006 C 
ENDBRANCH   8   9
BRANCH   8  11
ATOM     11  C   LIG d   1      -3.968  56.620 117.768  0.00  0.00     0.028 C 
ATOM     12  C   LIG d   1      -5.017  55.754 118.482  0.00  0.00     0.006 C 
ENDBRANCH   8  11
ENDBRANCH   7   8
ENDBRANCH   1   7
BRANCH   6  13
ATOM     13  N   LIG d   1      -0.498  57.520 118.748  0.00  0.00    -0.311 N 
ATOM     14  C   LIG d   1      -0.203  57.245 117.478  0.00  0.00     0.210 C 
ATOM     15  C   LIG d   1       0.510  55.907 117.256  0.00  0.00     0.109 C 
ATOM     16  O   LIG d   1      -0.434  57.996 116.519  0.00  0.00    -0.276 OA
ATOM     17  H   LIG d   1      -0.245  56.869 119.465  0.00  0.00     0.149 HD
ENDBRANCH   6  13
BRANCH   5  18
ATOM     18  N   LIG d   1       0.587  60.355 118.405  0.00  0.00     0.381 N 
ATOM     19  H   LIG d   1       0.421  59.769 117.612  0.00  0.00    -0.090 HD
ATOM     20  H   LIG d   1       1.559  60.287 118.650  0.00  0.00    -0.090 HD
ATOM     21  H   LIG d   1       0.358  61.299 118.183  0.00  0.00    -0.090 HD
ENDBRANCH   5  18
BRANCH   3  22
ATOM     22  C   LIG d   1      -2.252  61.719 122.014  0.00  0.00     0.382 C 
ATOM     23  O   LIG d   1      -1.455  62.663 122.233  0.00  0.00    -0.241 OA
ATOM     24  O   LIG d   1      -3.296  61.630 122.686  0.00  0.00    -0.241 OA
ENDBRANCH   3  22
TORSDOF 7
ENDMDL
MODEL 3
REMARK VINA RESULT:      -5.2     18.608     19.938
REMARK  7 active torsions:
REMARK  status: ('A' for Active; 'I' for Inactive)
REMARK    1  A    between atoms: C_2  and  C_3 
REMARK    2  A    between atoms: C_3  and  O_6 
REMARK    3  A    between atoms: C_3  and  C_4 
REMARK    4  A    between atoms: C_7  and  O_6 
REMARK    5  A    between atoms: C_9  and  C_10 
REMARK    6  A    between atoms: N_15  and  C_14 
REMARK    7  A    between atoms: N_20  and  C_19 
REMARK       I    between atoms: C_22  and  N_20 
ROOT
ATOM      1  C   LIG d   1      -6.062  78.322 117.369  0.00  0.00     0.161 C 
ATOM      2  C   LIG d   1      -7.287  79.004 117.278  0.00  0.00     0.016 C 
ATOM      3  C   LIG d   1      -7.531  80.251 117.899  0.00  0.00     0.038 C 
ATOM      4  C   LIG d   1      -6.510  80.976 118.533  0.00  0.00     0.028 C 
ATOM      5  C   LIG d   1      -5.393  80.096 119.082  0.00  0.00    -0.047 C 
ATOM      6  C   LIG d   1      -4.903  79.150 117.962  0.00  0.00     0.091 C 
ENDROOT
BRANCH   1   7
ATOM      7  O   LIG d   1      -5.696  77.802 116.075  0.00  0.00    -0.368 OA
BRANCH   7   8
ATOM      8  C   LIG d   1      -5.720  76.360 115.938  0.00  0.00     0.119 C 
BRANCH   8   9
ATOM      9  C   LIG d   1      -4.578  75.966 114.981  0.00  0.00     0.028 C 
ATOM     10  C   LIG d   1      -3.518  75.085 115.663  0.00  0.00     0.006 C 
ENDBRANCH   8   9
BRANCH   8  11
ATOM     11  C   LIG d   1      -7.005  75.887 115.252  0.00  0.00     0.028 C 
ATOM     12  C   LIG d   1      -8.114  75.519 116.251  0.00  0.00     0.006 C 
ENDBRANCH   8  11
ENDBRANCH   7   8
ENDBRANCH   1   7
BRANCH   6  13
ATOM     13  N   LIG d   1      -3.867  78.196 118.438  0.00  0.00    -0.311 N 
ATOM     14  C   LIG d   1      -2.723  77.975 117.794  0.00  0.00     0.210 C 
ATOM     15  C   LIG d   1      -1.803  76.938 118.446  0.00  0.00     0.109 C 
ATOM     16  O   LIG d   1      -2.367  78.562 116.761  0.00  0.00    -0.276 OA
ATOM     17  H   LIG d   1      -4.060  77.699 119.286  0.00  0.00     0.149 HD
ENDBRANCH   6  13
BRANCH   5  18
ATOM     18  N   LIG d   1      -4.333  80.987 119.591  0.00  0.00     0.381 N 
ATOM     19  H   LIG d   1      -4.154  81.714 118.927  0.00  0.00    -0.090 HD
ATOM     20  H   LIG d   1      -3.490  80.454 119.710  0.00  0.00    -0.090 HD
ATOM     21  H   LIG d   1      -4.610  81.383 120.462  0.00  0.00    -0.090 HD
ENDBRANCH   5  18
BRANCH   3  22
ATOM     22  C   LIG d   1      -8.818  80.765 117.925  0.00  0.00     0.382 C 
ATOM     23  O   LIG d   1      -9.793  80.030 117.636  0.00  0.00    -0.241 OA
ATOM     24  O   LIG d   1      -9.013  81.966 118.191  0.00  0.00    -0.241 OA
ENDBRANCH   3  22
TORSDOF 7
ENDMDL
MODEL 4
REMARK VINA RESULT:      -5.0     19.104     20.123
REMARK  7 active torsions:
REMARK  status: ('A' for Active; 'I' for Inactive)
REMARK    1  A    between atoms: C_2  and  C_3 
REMARK    2  A    between atoms: C_3  and  O_6 
REMARK    3  A    between atoms: C_3  and  C_4 
REMARK    4  A    between atoms: C_7  and  O_6 
REMARK    5  A    between atoms: C_9  and  C_10 
REMARK    6  A    between atoms: N_15  and  C_14 
REMARK    7  A    between atoms: N_20  and  C_19 
REMARK       I    between atoms: C_22  and  N_20 
ROOT
ATOM      1  C   LIG d   1      -6.113  79.536 117.630  0.00  0.00     0.161 C 
ATOM      2  C   LIG d   1      -5.082  78.852 118.296  0.00  0.00     0.016 C 
ATOM      3  C   LIG d   1      -4.932  78.849 119.702  0.00  0.00     0.038 C 
ATOM      4  C   LIG d   1      -5.898  79.408 120.552  0.00  0.00     0.028 C 
ATOM      5  C   LIG d   1      -6.688  80.542 119.907  0.00  0.00    -0.047 C 
ATOM      6  C   LIG d   1      -7.239  80.059 118.546  0.00  0.00     0.091 C 
ENDROOT
BRANCH   1   7
ATOM      7  O   LIG d   1      -6.660  78.701 116.590  0.00  0.00    -0.368 OA
BRANCH   7   8
ATOM      8  C   LIG d   1      -6.832  77.301 116.921  0.00  0.00     0.119 C 
BRANCH   8   9
ATOM      9  C   LIG d   1      -6.167  76.476 115.802  0.00  0.00     0.028 C 
ATOM     10  C   LIG d   1      -6.956  75.200 115.466  0.00  0.00     0.006 C 
ENDBRANCH   8   9
BRANCH   8  11
ATOM     11  C   LIG d   1      -8.310  76.900 116.896  0.00  0.00     0.028 C 
ATOM     12  C   LIG d   1      -8.925  76.802 118.301  0.00  0.00     0.006 C 
ENDBRANCH   8  11
ENDBRANCH   7   8
ENDBRANCH   1   7
BRANCH   6  13
ATOM     13  N   LIG d   1      -7.954  81.134 117.810  0.00  0.00    -0.311 N 
ATOM     14  C   LIG d   1      -9.215  81.024 117.394  0.00  0.00     0.210 C 
ATOM     15  C   LIG d   1      -9.755  82.242 116.637  0.00  0.00     0.109 C 
ATOM     16  O   LIG d   1      -9.948  80.047 117.609  0.00  0.00    -0.276 OA
ATOM     17  H   LIG d   1      -7.444  81.974 117.621  0.00  0.00     0.149 HD
ENDBRANCH   6  13
BRANCH   5  18
ATOM     18  N   LIG d   1      -7.749  80.939 120.852  0.00  0.00     0.381 N 
ATOM     19  H   LIG d   1      -7.339  81.339 121.672  0.00  0.00    -0.090 HD
ATOM     20  H   LIG d   1      -8.265  80.121 121.124  0.00  0.00    -0.090 HD
ATOM     21  H   LIG d   1      -8.360  81.598 120.422  0.00  0.00    -0.090 HD
ENDBRANCH   5  18
BRANCH   3  22
ATOM     22  C   LIG d   1      -3.785  78.315 120.269  0.00  0.00     0.382 C 
ATOM     23  O   LIG d   1      -3.394  78.719 121.391  0.00  0.00    -0.241 OA
ATOM     24  O   LIG d   1      -3.112  77.467 119.654  0.00  0.00    -0.241 OA
ENDBRANCH   3  22
TORSDOF 7
ENDMDL
MODEL 5
REMARK VINA RESULT:      -5.0     19.526     20.941
REMARK  7 active torsions:
REMARK  status: ('A' for Active; 'I' for Inactive)
REMARK    1  A    between atoms: C_2  and  C_3 
REMARK    2  A    between atoms: C_3  and  O_6 
REMARK    3  A    between atoms: C_3  and  C_4 
REMARK    4  A    between atoms: C_7  and  O_6 
REMARK    5  A    between atoms: C_9  and  C_10 
REMARK    6  A    between atoms: N_15  and  C_14 
REMARK    7  A    between atoms: N_20  and  C_19 
REMARK       I    between atoms: C_22  and  N_20 
ROOT
ATOM      1  C   LIG d   1      -9.706  78.952 118.425  0.00  0.00     0.161 C 
ATOM      2  C   LIG d   1      -9.276  77.788 117.765  0.00  0.00     0.016 C 
ATOM      3  C   LIG d   1      -7.945  77.585 117.334  0.00  0.00     0.038 C 
ATOM      4  C   LIG d   1      -6.913  78.473 117.670  0.00  0.00     0.028 C 
ATOM      5  C   LIG d   1      -7.394  79.902 117.896  0.00  0.00    -0.047 C 
ATOM      6  C   LIG d   1      -8.571  79.884 118.898  0.00  0.00     0.091 C 
ENDROOT
BRANCH   1   7
ATOM      7  O   LIG d   1     -10.559  78.600 119.532  0.00  0.00    -0.368 OA
BRANCH   7   8
ATOM      8  C   LIG d   1      -9.897  78.052 120.698  0.00  0.00     0.119 C 
BRANCH   8   9
ATOM      9  C   LIG d   1     -10.509  76.664 120.969  0.00  0.00     0.028 C 
ATOM     10  C   LIG d   1      -9.456  75.637 121.418  0.00  0.00     0.006 C 
ENDBRANCH   8   9
BRANCH   8  11
ATOM     11  C   LIG d   1     -10.199  78.880 121.950  0.00  0.00     0.028 C 
ATOM     12  C   LIG d   1     -11.365  79.861 121.749  0.00  0.00     0.006 C 
ENDBRANCH   8  11
ENDBRANCH   7   8
ENDBRANCH   1   7
BRANCH   6  13
ATOM     13  N   LIG d   1      -9.156  81.233 119.111  0.00  0.00    -0.311 N 
ATOM     14  C   LIG d   1      -8.820  82.026 120.128  0.00  0.00     0.210 C 
ATOM     15  C   LIG d   1      -9.557  83.368 120.172  0.00  0.00     0.109 C 
ATOM     16  O   LIG d   1      -7.958  81.758 120.979  0.00  0.00    -0.276 OA
ATOM     17  H   LIG d   1      -9.840  81.543 118.449  0.00  0.00     0.149 HD
ENDBRANCH   6  13
BRANCH   5  18
ATOM     18  N   LIG d   1      -6.241  80.690 118.373  0.00  0.00     0.381 N 
ATOM     19  H   LIG d   1      -5.427  80.455 117.841  0.00  0.00    -0.090 HD
ATOM     20  H   LIG d   1      -6.067  80.461 119.335  0.00  0.00    -0.090 HD
ATOM     21  H   LIG d   1      -6.434  81.664 118.285  0.00  0.00    -0.090 HD
ENDBRANCH   5  18
BRANCH   3  22
ATOM     22  C   LIG d   1      -7.644  76.501 116.524  0.00  0.00     0.382 C 
ATOM     23  O   LIG d   1      -6.558  76.470 115.896  0.00  0.00    -0.241 OA
ATOM     24  O   LIG d   1      -8.463  75.574 116.378  0.00  0.00    -0.241 OA
ENDBRANCH   3  22
TORSDOF 7
ENDMDL
MODEL 6
REMARK VINA RESULT:      -5.0     19.426     20.554
REMARK  7 active torsions:
REMARK  status: ('A' for Active; 'I' for Inactive)
REMARK    1  A    between atoms: C_2  and  C_3 
REMARK    2  A    between atoms: C_3  and  O_6 
REMARK    3  A    between atoms: C_3  and  C_4 
REMARK    4  A    between atoms: C_7  and  O_6 
REMARK    5  A    between atoms: C_9  and  C_10 
REMARK    6  A    between atoms: N_15  and  C_14 
REMARK    7  A    between atoms: N_20  and  C_19 
REMARK       I    between atoms: C_22  and  N_20 
ROOT
ATOM      1  C   LIG d   1      -6.732  79.536 118.175  0.00  0.00     0.161 C 
ATOM      2  C   LIG d   1      -6.056  80.496 118.947  0.00  0.00     0.016 C 
ATOM      3  C   LIG d   1      -4.660  80.470 119.174  0.00  0.00     0.038 C 
ATOM      4  C   LIG d   1      -3.819  79.561 118.516  0.00  0.00     0.028 C 
ATOM      5  C   LIG d   1      -4.517  78.262 118.126  0.00  0.00    -0.047 C 
ATOM      6  C   LIG d   1      -5.815  78.601 117.358  0.00  0.00     0.091 C 
ENDROOT
BRANCH   1   7
ATOM      7  O   LIG d   1      -7.683  80.187 117.310  0.00  0.00    -0.368 OA
BRANCH   7   8
ATOM      8  C   LIG d   1      -9.079  79.888 117.558  0.00  0.00     0.119 C 
BRANCH   8   9
ATOM      9  C   LIG d   1      -9.801  81.225 117.814  0.00  0.00     0.028 C 
ATOM     10  C   LIG d   1      -9.664  82.201 116.633  0.00  0.00     0.006 C 
ENDBRANCH   8   9
BRANCH   8  11
ATOM     11  C   LIG d   1      -9.255  79.078 118.846  0.00  0.00     0.028 C 
ATOM     12  C   LIG d   1      -9.872  77.693 118.600  0.00  0.00     0.006 C 
ENDBRANCH   8  11
ENDBRANCH   7   8
ENDBRANCH   1   7
BRANCH   6  13
ATOM     13  N   LIG d   1      -6.603  77.389 117.013  0.00  0.00    -0.311 N 
ATOM     14  C   LIG d   1      -6.405  76.677 115.906  0.00  0.00     0.210 C 
ATOM     15  C   LIG d   1      -7.340  75.476 115.733  0.00  0.00     0.109 C 
ATOM     16  O   LIG d   1      -5.522  76.907 115.065  0.00  0.00    -0.276 OA
ATOM     17  H   LIG d   1      -7.320  77.112 117.656  0.00  0.00     0.149 HD
ENDBRANCH   6  13
BRANCH   5  18
ATOM     18  N   LIG d   1      -3.565  77.466 117.329  0.00  0.00     0.381 N 
ATOM     19  H   LIG d   1      -3.639  76.500 117.578  0.00  0.00    -0.090 HD
ATOM     20  H   LIG d   1      -2.631  77.774 117.534  0.00  0.00    -0.090 HD
ATOM     21  H   LIG d   1      -3.754  77.581 116.357  0.00  0.00    -0.090 HD
ENDBRANCH   5  18
BRANCH   3  22
ATOM     22  C   LIG d   1      -4.098  81.336 120.100  0.00  0.00     0.382 C 
ATOM     23  O   LIG d   1      -4.612  81.456 121.238  0.00  0.00    -0.241 OA
ATOM     24  O   LIG d   1      -3.110  82.031 119.796  0.00  0.00    -0.241 OA
ENDBRANCH   3  22
TORSDOF 7
ENDMDL
MODEL 7
REMARK VINA RESULT:      -4.9      3.081      4.533
REMARK  7 active torsions:
REMARK  status: ('A' for Active; 'I' for Inactive)
REMARK    1  A    between atoms: C_2  and  C_3 
REMARK    2  A    between atoms: C_3  and  O_6 
REMARK    3  A    between atoms: C_3  and  C_4 
REMARK    4  A    between atoms: C_7  and  O_6 
REMARK    5  A    between atoms: C_9  and  C_10 
REMARK    6  A    between atoms: N_15  and  C_14 
REMARK    7  A    between atoms: N_20  and  C_19 
REMARK       I    between atoms: C_22  and  N_20 
ROOT
ATOM      1  C   LIG d   1      -2.647  57.637 119.767  0.00  0.00     0.161 C 
ATOM      2  C   LIG d   1      -2.211  58.647 118.894  0.00  0.00     0.016 C 
ATOM      3  C   LIG d   1      -1.679  58.389 117.610  0.00  0.00     0.038 C 
ATOM      4  C   LIG d   1      -1.687  57.103 117.048  0.00  0.00     0.028 C 
ATOM      5  C   LIG d   1      -1.652  55.988 118.088  0.00  0.00    -0.047 C 
ATOM      6  C   LIG d   1      -2.767  56.237 119.129  0.00  0.00     0.091 C 
ENDROOT
BRANCH   1   7
ATOM      7  O   LIG d   1      -3.898  58.021 120.372  0.00  0.00    -0.368 OA
BRANCH   7   8
ATOM      8  C   LIG d   1      -4.247  59.424 120.280  0.00  0.00     0.119 C 
BRANCH   8   9
ATOM      9  C   LIG d   1      -4.241  59.997 121.711  0.00  0.00     0.028 C 
ATOM     10  C   LIG d   1      -2.933  60.735 122.042  0.00  0.00     0.006 C 
ENDBRANCH   8   9
BRANCH   8  11
ATOM     11  C   LIG d   1      -5.680  59.610 119.775  0.00  0.00     0.028 C 
ATOM     12  C   LIG d   1      -5.885  59.067 118.351  0.00  0.00     0.006 C 
ENDBRANCH   8  11
ENDBRANCH   7   8
ENDBRANCH   1   7
BRANCH   6  13
ATOM     13  N   LIG d   1      -2.749  55.238 120.229  0.00  0.00    -0.311 N 
ATOM     14  C   LIG d   1      -3.847  54.655 120.707  0.00  0.00     0.210 C 
ATOM     15  C   LIG d   1      -3.607  53.669 121.855  0.00  0.00     0.109 C 
ATOM     16  O   LIG d   1      -4.993  54.836 120.269  0.00  0.00    -0.276 OA
ATOM     17  H   LIG d   1      -1.858  55.009 120.622  0.00  0.00     0.149 HD
ENDBRANCH   6  13
BRANCH   5  18
ATOM     18  N   LIG d   1      -1.804  54.707 117.372  0.00  0.00     0.381 N 
ATOM     19  H   LIG d   1      -1.080  54.076 117.650  0.00  0.00    -0.090 HD
ATOM     20  H   LIG d   1      -1.716  54.874 116.385  0.00  0.00    -0.090 HD
ATOM     21  H   LIG d   1      -2.696  54.309 117.571  0.00  0.00    -0.090 HD
ENDBRANCH   5  18
BRANCH   3  22
ATOM     22  C   LIG d   1      -1.094  59.419 116.889  0.00  0.00     0.382 C 
ATOM     23  O   LIG d   1      -0.754  59.234 115.695  0.00  0.00    -0.241 OA
ATOM     24  O   LIG d   1      -0.862  60.516 117.430  0.00  0.00    -0.241 OA
ENDBRANCH   3  22
TORSDOF 7
ENDMDL
MODEL 8
REMARK VINA RESULT:      -4.8     20.877     22.302
REMARK  7 active torsions:
REMARK  status: ('A' for Active; 'I' for Inactive)
REMARK    1  A    between atoms: C_2  and  C_3 
REMARK    2  A    between atoms: C_3  and  O_6 
REMARK    3  A    between atoms: C_3  and  C_4 
REMARK    4  A    between atoms: C_7  and  O_6 
REMARK    5  A    between atoms: C_9  and  C_10 
REMARK    6  A    between atoms: N_15  and  C_14 
REMARK    7  A    between atoms: N_20  and  C_19 
REMARK       I    between atoms: C_22  and  N_20 
ROOT
ATOM      1  C   LIG d   1      -9.177  80.215 120.304  0.00  0.00     0.161 C 
ATOM      2  C   LIG d   1      -9.311  81.421 121.012  0.00  0.00     0.016 C 
ATOM      3  C   LIG d   1      -9.362  82.689 120.387  0.00  0.00     0.038 C 
ATOM      4  C   LIG d   1      -9.436  82.825 118.993  0.00  0.00     0.028 C 
ATOM      5  C   LIG d   1      -8.796  81.666 118.236  0.00  0.00    -0.047 C 
ATOM      6  C   LIG d   1      -9.368  80.336 118.778  0.00  0.00     0.091 C 
ENDROOT
BRANCH   1   7
ATOM      7  O   LIG d   1     -10.079  79.229 120.845  0.00  0.00    -0.368 OA
BRANCH   7   8
ATOM      8  C   LIG d   1      -9.529  78.350 121.857  0.00  0.00     0.119 C 
BRANCH   8   9
ATOM      9  C   LIG d   1      -8.075  78.034 121.456  0.00  0.00     0.028 C 
ATOM     10  C   LIG d   1      -7.096  78.180 122.633  0.00  0.00     0.006 C 
ENDBRANCH   8   9
BRANCH   8  11
ATOM     11  C   LIG d   1     -10.248  76.998 121.870  0.00  0.00     0.028 C 
ATOM     12  C   LIG d   1      -9.514  75.924 121.051  0.00  0.00     0.006 C 
ENDBRANCH   8  11
ENDBRANCH   7   8
ENDBRANCH   1   7
BRANCH   6  13
ATOM     13  N   LIG d   1      -8.733  79.148 118.150  0.00  0.00    -0.311 N 
ATOM     14  C   LIG d   1      -9.376  78.002 117.934  0.00  0.00     0.210 C 
ATOM     15  C   LIG d   1      -8.530  76.897 117.293  0.00  0.00     0.109 C 
ATOM     16  O   LIG d   1     -10.575  77.806 118.182  0.00  0.00    -0.276 OA
ATOM     17  H   LIG d   1      -7.770  79.230 117.888  0.00  0.00     0.149 HD
ENDBRANCH   6  13
BRANCH   5  18
ATOM     18  N   LIG d   1      -9.066  81.868 116.800  0.00  0.00     0.381 N 
ATOM     19  H   LIG d   1      -8.390  82.498 116.414  0.00  0.00    -0.090 HD
ATOM     20  H   LIG d   1      -9.976  82.280 116.695  0.00  0.00    -0.090 HD
ATOM     21  H   LIG d   1      -9.030  80.996 116.320  0.00  0.00    -0.090 HD
ENDBRANCH   5  18
BRANCH   3  22
ATOM     22  C   LIG d   1      -9.300  83.839 121.159  0.00  0.00     0.382 C 
ATOM     23  O   LIG d   1      -8.297  84.056 121.880  0.00  0.00    -0.241 OA
ATOM     24  O   LIG d   1     -10.254  84.639 121.178  0.00  0.00    -0.241 OA
ENDBRANCH   3  22
TORSDOF 7
ENDMDL
MODEL 9
REMARK VINA RESULT:      -4.7     18.482     20.097
REMARK  7 active torsions:
REMARK  status: ('A' for Active; 'I' for Inactive)
REMARK    1  A    between atoms: C_2  and  C_3 
REMARK    2  A    between atoms: C_3  and  O_6 
REMARK    3  A    between atoms: C_3  and  C_4 
REMARK    4  A    between atoms: C_7  and  O_6 
REMARK    5  A    between atoms: C_9  and  C_10 
REMARK    6  A    between atoms: N_15  and  C_14 
REMARK    7  A    between atoms: N_20  and  C_19 
REMARK       I    between atoms: C_22  and  N_20 
ROOT
ATOM      1  C   LIG d   1      -5.939  78.922 117.257  0.00  0.00     0.161 C 
ATOM      2  C   LIG d   1      -7.244  79.061 117.758  0.00  0.00     0.016 C 
ATOM      3  C   LIG d   1      -8.257  78.094 117.569  0.00  0.00     0.038 C 
ATOM      4  C   LIG d   1      -7.990  76.843 116.992  0.00  0.00     0.028 C 
ATOM      5  C   LIG d   1      -6.813  76.862 116.023  0.00  0.00    -0.047 C 
ATOM      6  C   LIG d   1      -5.598  77.515 116.722  0.00  0.00     0.091 C 
ENDROOT
BRANCH   1   7
ATOM      7  O   LIG d   1      -4.985  79.319 118.262  0.00  0.00    -0.368 OA
BRANCH   7   8
ATOM      8  C   LIG d   1      -5.536  79.726 119.539  0.00  0.00     0.119 C 
BRANCH   8   9
ATOM      9  C   LIG d   1      -5.068  81.170 119.806  0.00  0.00     0.028 C 
ATOM     10  C   LIG d   1      -6.222  82.184 119.732  0.00  0.00     0.006 C 
ENDBRANCH   8   9
BRANCH   8  11
ATOM     11  C   LIG d   1      -4.957  78.894 120.687  0.00  0.00     0.028 C 
ATOM     12  C   LIG d   1      -5.904  78.805 121.894  0.00  0.00     0.006 C 
ENDBRANCH   8  11
ENDBRANCH   7   8
ENDBRANCH   1   7
BRANCH   6  13
ATOM     13  N   LIG d   1      -4.428  77.650 115.815  0.00  0.00    -0.311 N 
ATOM     14  C   LIG d   1      -3.451  76.748 115.740  0.00  0.00     0.210 C 
ATOM     15  C   LIG d   1      -2.329  77.091 114.756  0.00  0.00     0.109 C 
ATOM     16  O   LIG d   1      -3.423  75.681 116.372  0.00  0.00    -0.276 OA
ATOM     17  H   LIG d   1      -4.386  78.471 115.244  0.00  0.00     0.149 HD
ENDBRANCH   6  13
BRANCH   5  18
ATOM     18  N   LIG d   1      -6.559  75.471 115.602  0.00  0.00     0.381 N 
ATOM     19  H   LIG d   1      -6.026  75.465 114.756  0.00  0.00    -0.090 HD
ATOM     20  H   LIG d   1      -7.439  75.020 115.425  0.00  0.00    -0.090 HD
ATOM     21  H   LIG d   1      -6.066  74.984 116.317  0.00  0.00    -0.090 HD
ENDBRANCH   5  18
BRANCH   3  22
ATOM     22  C   LIG d   1      -9.564  78.389 117.925  0.00  0.00     0.382 C 
ATOM     23  O   LIG d   1      -9.959  79.580 117.928  0.00  0.00    -0.241 OA
ATOM     24  O   LIG d   1     -10.341  77.485 118.285  0.00  0.00    -0.241 OA
ENDBRANCH   3  22
TORSDOF 7
ENDMDL
