MODEL 1
REMARK VINA RESULT:      -5.2      0.000      0.000
REMARK  7 active torsions:
REMARK  status: ('A' for Active; 'I' for Inactive)
REMARK    1  A    between atoms: C_2  and  C_3 
REMARK    2  A    between atoms: C_3  and  O_6 
REMARK    3  A    between atoms: C_3  and  C_4 
REMARK    4  A    between atoms: C_7  and  O_6 
REMARK    5  A    between atoms: C_9  and  C_10 
REMARK    6  A    between atoms: N_15  and  C_14 
REMARK    7  A    between atoms: N_20  and  C_19 
REMARK       I    between atoms: C_22  and  N_20 
ROOT
ATOM      1  C   LIG d   1      -0.766  59.254 119.686  0.00  0.00     0.161 C 
ATOM      2  C   LIG d   1      -1.612  59.380 118.572  0.00  0.00     0.016 C 
ATOM      3  C   LIG d   1      -1.282  58.895 117.285  0.00  0.00     0.038 C 
ATOM      4  C   LIG d   1      -0.141  58.111 117.058  0.00  0.00     0.028 C 
ATOM      5  C   LIG d   1       0.990  58.389 118.043  0.00  0.00    -0.047 C 
ATOM      6  C   LIG d   1       0.434  58.304 119.483  0.00  0.00     0.091 C 
ENDROOT
BRANCH   1   7
ATOM      7  O   LIG d   1      -1.532  58.853 120.839  0.00  0.00    -0.368 OA
BRANCH   7   8
ATOM      8  C   LIG d   1      -1.974  59.921 121.713  0.00  0.00     0.119 C 
BRANCH   8   9
ATOM      9  C   LIG d   1      -1.287  59.716 123.077  0.00  0.00     0.028 C 
ATOM     10  C   LIG d   1      -0.095  60.666 123.282  0.00  0.00     0.006 C 
ENDBRANCH   8   9
BRANCH   8  11
ATOM     11  C   LIG d   1      -3.476  59.823 121.997  0.00  0.00     0.028 C 
ATOM     12  C   LIG d   1      -4.333  60.479 120.902  0.00  0.00     0.006 C 
ENDBRANCH   8  11
ENDBRANCH   7   8
ENDBRANCH   1   7
BRANCH   6  13
ATOM     13  N   LIG d   1       1.456  58.645 120.506  0.00  0.00    -0.311 N 
ATOM     14  C   LIG d   1       1.748  57.859 121.541  0.00  0.00     0.210 C 
ATOM     15  C   LIG d   1       2.819  58.409 122.489  0.00  0.00     0.109 C 
ATOM     16  O   LIG d   1       1.245  56.745 121.747  0.00  0.00    -0.276 OA
ATOM     17  H   LIG d   1       1.935  59.518 120.399  0.00  0.00     0.149 HD
ENDBRANCH   6  13
BRANCH   5  18
ATOM     18  N   LIG d   1       2.061  57.409 117.779  0.00  0.00     0.381 N 
ATOM     19  H   LIG d   1       2.242  56.874 118.604  0.00  0.00    -0.090 HD
ATOM     20  H   LIG d   1       2.900  57.904 117.533  0.00  0.00    -0.090 HD
ATOM     21  H   LIG d   1       1.794  56.804 117.034  0.00  0.00    -0.090 HD
ENDBRANCH   5  18
BRANCH   3  22
ATOM     22  C   LIG d   1      -2.080  59.227 116.201  0.00  0.00     0.382 C 
ATOM     23  O   LIG d   1      -1.561  59.717 115.168  0.00  0.00    -0.241 OA
ATOM     24  O   LIG d   1      -3.316  59.085 116.258  0.00  0.00    -0.241 OA
ENDBRANCH   3  22
TORSDOF 7
ENDMDL
MODEL 2
REMARK VINA RESULT:      -5.0     32.457     33.770
REMARK  7 active torsions:
REMARK  status: ('A' for Active; 'I' for Inactive)
REMARK    1  A    between atoms: C_2  and  C_3 
REMARK    2  A    between atoms: C_3  and  O_6 
REMARK    3  A    between atoms: C_3  and  C_4 
REMARK    4  A    between atoms: C_7  and  O_6 
REMARK    5  A    between atoms: C_9  and  C_10 
REMARK    6  A    between atoms: N_15  and  C_14 
REMARK    7  A    between atoms: N_20  and  C_19 
REMARK       I    between atoms: C_22  and  N_20 
ROOT
ATOM      1  C   LIG d   1      -5.088  92.946 117.226  0.00  0.00     0.161 C 
ATOM      2  C   LIG d   1      -6.247  92.242 116.858  0.00  0.00     0.016 C 
ATOM      3  C   LIG d   1      -6.263  90.852 116.596  0.00  0.00     0.038 C 
ATOM      4  C   LIG d   1      -5.144  90.040 116.833  0.00  0.00     0.028 C 
ATOM      5  C   LIG d   1      -3.819  90.786 116.720  0.00  0.00    -0.047 C 
ATOM      6  C   LIG d   1      -3.882  92.057 117.597  0.00  0.00     0.091 C 
ENDROOT
BRANCH   1   7
ATOM      7  O   LIG d   1      -5.390  93.856 118.302  0.00  0.00    -0.368 OA
BRANCH   7   8
ATOM      8  C   LIG d   1      -6.626  93.610 119.016  0.00  0.00     0.119 C 
BRANCH   8   9
ATOM      9  C   LIG d   1      -7.408  94.937 119.059  0.00  0.00     0.028 C 
ATOM     10  C   LIG d   1      -7.842  95.408 117.661  0.00  0.00     0.006 C 
ENDBRANCH   8   9
BRANCH   8  11
ATOM     11  C   LIG d   1      -6.361  93.248 120.481  0.00  0.00     0.028 C 
ATOM     12  C   LIG d   1      -5.649  91.895 120.641  0.00  0.00     0.006 C 
ENDBRANCH   8  11
ENDBRANCH   7   8
ENDBRANCH   1   7
BRANCH   6  13
ATOM     13  N   LIG d   1      -2.657  92.890 117.479  0.00  0.00    -0.311 N 
ATOM     14  C   LIG d   1      -1.883  93.207 118.515  0.00  0.00     0.210 C 
ATOM     15  C   LIG d   1      -0.679  94.091 118.176  0.00  0.00     0.109 C 
ATOM     16  O   LIG d   1      -2.061  92.813 119.678  0.00  0.00    -0.276 OA
ATOM     17  H   LIG d   1      -2.420  93.226 116.566  0.00  0.00     0.149 HD
ENDBRANCH   6  13
BRANCH   5  18
ATOM     18  N   LIG d   1      -2.748  89.857 117.125  0.00  0.00     0.381 N 
ATOM     19  H   LIG d   1      -1.968  90.373 117.481  0.00  0.00    -0.090 HD
ATOM     20  H   LIG d   1      -2.443  89.340 116.319  0.00  0.00    -0.090 HD
ATOM     21  H   LIG d   1      -3.086  89.230 117.822  0.00  0.00    -0.090 HD
ENDBRANCH   5  18
BRANCH   3  22
ATOM     22  C   LIG d   1      -7.397  90.269 116.053  0.00  0.00     0.382 C 
ATOM     23  O   LIG d   1      -8.065  90.883 115.187  0.00  0.00    -0.241 OA
ATOM     24  O   LIG d   1      -7.786  89.154 116.450  0.00  0.00    -0.241 OA
ENDBRANCH   3  22
TORSDOF 7
ENDMDL
MODEL 3
REMARK VINA RESULT:      -4.9     32.799     34.299
REMARK  7 active torsions:
REMARK  status: ('A' for Active; 'I' for Inactive)
REMARK    1  A    between atoms: C_2  and  C_3 
REMARK    2  A    between atoms: C_3  and  O_6 
REMARK    3  A    between atoms: C_3  and  C_4 
REMARK    4  A    between atoms: C_7  and  O_6 
REMARK    5  A    between atoms: C_9  and  C_10 
REMARK    6  A    between atoms: N_15  and  C_14 
REMARK    7  A    between atoms: N_20  and  C_19 
REMARK       I    between atoms: C_22  and  N_20 
ROOT
ATOM      1  C   LIG d   1      -6.015  92.452 118.196  0.00  0.00     0.161 C 
ATOM      2  C   LIG d   1      -4.814  93.135 118.449  0.00  0.00     0.016 C 
ATOM      3  C   LIG d   1      -3.560  92.715 117.949  0.00  0.00     0.038 C 
ATOM      4  C   LIG d   1      -3.443  91.660 117.031  0.00  0.00     0.028 C 
ATOM      5  C   LIG d   1      -4.563  90.631 117.145  0.00  0.00    -0.047 C 
ATOM      6  C   LIG d   1      -5.923  91.364 117.106  0.00  0.00     0.091 C 
ENDROOT
BRANCH   1   7
ATOM      7  O   LIG d   1      -7.056  93.396 117.874  0.00  0.00    -0.368 OA
BRANCH   7   8
ATOM      8  C   LIG d   1      -7.020  94.653 118.594  0.00  0.00     0.119 C 
BRANCH   8   9
ATOM      9  C   LIG d   1      -7.997  94.536 119.780  0.00  0.00     0.028 C 
ATOM     10  C   LIG d   1      -7.302  94.741 121.136  0.00  0.00     0.006 C 
ENDBRANCH   8   9
BRANCH   8  11
ATOM     11  C   LIG d   1      -7.560  95.802 117.736  0.00  0.00     0.028 C 
ATOM     12  C   LIG d   1      -9.053  96.073 117.975  0.00  0.00     0.006 C 
ENDBRANCH   8  11
ENDBRANCH   7   8
ENDBRANCH   1   7
BRANCH   6  13
ATOM     13  N   LIG d   1      -7.071  90.439 117.296  0.00  0.00    -0.311 N 
ATOM     14  C   LIG d   1      -7.668  89.796 116.295  0.00  0.00     0.210 C 
ATOM     15  C   LIG d   1      -8.845  88.906 116.708  0.00  0.00     0.109 C 
ATOM     16  O   LIG d   1      -7.315  89.853 115.107  0.00  0.00    -0.276 OA
ATOM     17  H   LIG d   1      -7.402  90.310 118.232  0.00  0.00     0.149 HD
ENDBRANCH   6  13
BRANCH   5  18
ATOM     18  N   LIG d   1      -4.394  89.665 116.043  0.00  0.00     0.381 N 
ATOM     19  H   LIG d   1      -4.057  88.795 116.404  0.00  0.00    -0.090 HD
ATOM     20  H   LIG d   1      -3.713  90.024 115.398  0.00  0.00    -0.090 HD
ATOM     21  H   LIG d   1      -5.263  89.525 115.577  0.00  0.00    -0.090 HD
ENDBRANCH   5  18
BRANCH   3  22
ATOM     22  C   LIG d   1      -2.400  93.327 118.399  0.00  0.00     0.382 C 
ATOM     23  O   LIG d   1      -2.254  93.572 119.621  0.00  0.00    -0.241 OA
ATOM     24  O   LIG d   1      -1.518  93.679 117.593  0.00  0.00    -0.241 OA
ENDBRANCH   3  22
TORSDOF 7
ENDMDL
MODEL 4
REMARK VINA RESULT:      -4.9     33.473     34.940
REMARK  7 active torsions:
REMARK  status: ('A' for Active; 'I' for Inactive)
REMARK    1  A    between atoms: C_2  and  C_3 
REMARK    2  A    between atoms: C_3  and  O_6 
REMARK    3  A    between atoms: C_3  and  C_4 
REMARK    4  A    between atoms: C_7  and  O_6 
REMARK    5  A    between atoms: C_9  and  C_10 
REMARK    6  A    between atoms: N_15  and  C_14 
REMARK    7  A    between atoms: N_20  and  C_19 
REMARK       I    between atoms: C_22  and  N_20 
ROOT
ATOM      1  C   LIG d   1      -5.834  92.526 118.563  0.00  0.00     0.161 C 
ATOM      2  C   LIG d   1      -5.113  91.463 117.994  0.00  0.00     0.016 C 
ATOM      3  C   LIG d   1      -5.215  91.096 116.632  0.00  0.00     0.038 C 
ATOM      4  C   LIG d   1      -5.934  91.868 115.708  0.00  0.00     0.028 C 
ATOM      5  C   LIG d   1      -7.080  92.653 116.336  0.00  0.00    -0.047 C 
ATOM      6  C   LIG d   1      -6.539  93.448 117.547  0.00  0.00     0.091 C 
ENDROOT
BRANCH   1   7
ATOM      7  O   LIG d   1      -4.971  93.296 119.424  0.00  0.00    -0.368 OA
BRANCH   7   8
ATOM      8  C   LIG d   1      -4.177  94.321 118.777  0.00  0.00     0.119 C 
BRANCH   8   9
ATOM      9  C   LIG d   1      -2.694  93.973 119.009  0.00  0.00     0.028 C 
ATOM     10  C   LIG d   1      -1.980  93.553 117.713  0.00  0.00     0.006 C 
ENDBRANCH   8   9
BRANCH   8  11
ATOM     11  C   LIG d   1      -4.382  95.686 119.442  0.00  0.00     0.028 C 
ATOM     12  C   LIG d   1      -5.213  95.602 120.732  0.00  0.00     0.006 C 
ENDBRANCH   8  11
ENDBRANCH   7   8
ENDBRANCH   1   7
BRANCH   6  13
ATOM     13  N   LIG d   1      -7.612  94.179 118.270  0.00  0.00    -0.311 N 
ATOM     14  C   LIG d   1      -7.882  95.468 118.074  0.00  0.00     0.210 C 
ATOM     15  C   LIG d   1      -9.015  96.031 118.938  0.00  0.00     0.109 C 
ATOM     16  O   LIG d   1      -7.313  96.191 117.242  0.00  0.00    -0.276 OA
ATOM     17  H   LIG d   1      -8.144  93.660 118.941  0.00  0.00     0.149 HD
ENDBRANCH   6  13
BRANCH   5  18
ATOM     18  N   LIG d   1      -7.656  93.517 115.288  0.00  0.00     0.381 N 
ATOM     19  H   LIG d   1      -7.473  93.124 114.387  0.00  0.00    -0.090 HD
ATOM     20  H   LIG d   1      -7.217  94.420 115.334  0.00  0.00    -0.090 HD
ATOM     21  H   LIG d   1      -8.639  93.610 115.425  0.00  0.00    -0.090 HD
ENDBRANCH   5  18
BRANCH   3  22
ATOM     22  C   LIG d   1      -4.623  89.922 116.191  0.00  0.00     0.382 C 
ATOM     23  O   LIG d   1      -4.974  89.416 115.098  0.00  0.00    -0.241 OA
ATOM     24  O   LIG d   1      -3.775  89.340 116.893  0.00  0.00    -0.241 OA
ENDBRANCH   3  22
TORSDOF 7
ENDMDL
MODEL 5
REMARK VINA RESULT:      -4.9     18.594     20.161
REMARK  7 active torsions:
REMARK  status: ('A' for Active; 'I' for Inactive)
REMARK    1  A    between atoms: C_2  and  C_3 
REMARK    2  A    between atoms: C_3  and  O_6 
REMARK    3  A    between atoms: C_3  and  C_4 
REMARK    4  A    between atoms: C_7  and  O_6 
REMARK    5  A    between atoms: C_9  and  C_10 
REMARK    6  A    between atoms: N_15  and  C_14 
REMARK    7  A    between atoms: N_20  and  C_19 
REMARK       I    between atoms: C_22  and  N_20 
ROOT
ATOM      1  C   LIG d   1      -4.664  77.774 116.786  0.00  0.00     0.161 C 
ATOM      2  C   LIG d   1      -6.003  78.176 116.928  0.00  0.00     0.016 C 
ATOM      3  C   LIG d   1      -6.395  79.344 117.623  0.00  0.00     0.038 C 
ATOM      4  C   LIG d   1      -5.458  80.275 118.096  0.00  0.00     0.028 C 
ATOM      5  C   LIG d   1      -4.101  79.658 118.417  0.00  0.00    -0.047 C 
ATOM      6  C   LIG d   1      -3.623  78.835 117.199  0.00  0.00     0.091 C 
ENDROOT
BRANCH   1   7
ATOM      7  O   LIG d   1      -4.426  77.339 115.432  0.00  0.00    -0.368 OA
BRANCH   7   8
ATOM      8  C   LIG d   1      -4.211  75.918 115.248  0.00  0.00     0.119 C 
BRANCH   8   9
ATOM      9  C   LIG d   1      -5.559  75.295 114.839  0.00  0.00     0.028 C 
ATOM     10  C   LIG d   1      -6.171  74.434 115.957  0.00  0.00     0.006 C 
ENDBRANCH   8   9
BRANCH   8  11
ATOM     11  C   LIG d   1      -3.832  75.237 116.566  0.00  0.00     0.028 C 
ATOM     12  C   LIG d   1      -2.452  74.562 116.513  0.00  0.00     0.006 C 
ENDBRANCH   8  11
ENDBRANCH   7   8
ENDBRANCH   1   7
BRANCH   6  13
ATOM     13  N   LIG d   1      -2.341  78.129 117.460  0.00  0.00    -0.311 N 
ATOM     14  C   LIG d   1      -1.254  78.282 116.706  0.00  0.00     0.210 C 
ATOM     15  C   LIG d   1      -0.045  77.445 117.138  0.00  0.00     0.109 C 
ATOM     16  O   LIG d   1      -1.165  79.054 115.740  0.00  0.00    -0.276 OA
ATOM     17  H   LIG d   1      -2.315  77.506 118.243  0.00  0.00     0.149 HD
ENDBRANCH   6  13
BRANCH   5  18
ATOM     18  N   LIG d   1      -3.183  80.759 118.767  0.00  0.00     0.381 N 
ATOM     19  H   LIG d   1      -2.567  80.943 118.001  0.00  0.00    -0.090 HD
ATOM     20  H   LIG d   1      -2.629  80.481 119.558  0.00  0.00    -0.090 HD
ATOM     21  H   LIG d   1      -3.703  81.579 118.988  0.00  0.00    -0.090 HD
ENDBRANCH   5  18
BRANCH   3  22
ATOM     22  C   LIG d   1      -7.737  79.569 117.885  0.00  0.00     0.382 C 
ATOM     23  O   LIG d   1      -8.363  78.803 118.657  0.00  0.00    -0.241 OA
ATOM     24  O   LIG d   1      -8.343  80.502 117.324  0.00  0.00    -0.241 OA
ENDBRANCH   3  22
TORSDOF 7
ENDMDL
MODEL 6
REMARK VINA RESULT:      -4.6     13.461     16.665
REMARK  7 active torsions:
REMARK  status: ('A' for Active; 'I' for Inactive)
REMARK    1  A    between atoms: C_2  and  C_3 
REMARK    2  A    between atoms: C_3  and  O_6 
REMARK    3  A    between atoms: C_3  and  C_4 
REMARK    4  A    between atoms: C_7  and  O_6 
REMARK    5  A    between atoms: C_9  and  C_10 
REMARK    6  A    between atoms: N_15  and  C_14 
REMARK    7  A    between atoms: N_20  and  C_19 
REMARK       I    between atoms: C_22  and  N_20 
ROOT
ATOM      1  C   LIG d   1     -13.772  67.685 122.630  0.00  0.00     0.161 C 
ATOM      2  C   LIG d   1     -12.691  67.227 123.402  0.00  0.00     0.016 C 
ATOM      3  C   LIG d   1     -11.915  66.096 123.061  0.00  0.00     0.038 C 
ATOM      4  C   LIG d   1     -12.075  65.429 121.837  0.00  0.00     0.028 C 
ATOM      5  C   LIG d   1     -13.482  65.547 121.262  0.00  0.00    -0.047 C 
ATOM      6  C   LIG d   1     -13.890  67.037 121.235  0.00  0.00     0.091 C 
ENDROOT
BRANCH   1   7
ATOM      7  O   LIG d   1     -13.715  69.121 122.513  0.00  0.00    -0.368 OA
BRANCH   7   8
ATOM      8  C   LIG d   1     -14.568  69.868 123.416  0.00  0.00     0.119 C 
BRANCH   8   9
ATOM      9  C   LIG d   1     -15.837  70.260 122.636  0.00  0.00     0.028 C 
ATOM     10  C   LIG d   1     -16.284  71.702 122.928  0.00  0.00     0.006 C 
ENDBRANCH   8   9
BRANCH   8  11
ATOM     11  C   LIG d   1     -13.918  71.193 123.826  0.00  0.00     0.028 C 
ATOM     12  C   LIG d   1     -12.806  71.013 124.871  0.00  0.00     0.006 C 
ENDBRANCH   8  11
ENDBRANCH   7   8
ENDBRANCH   1   7
BRANCH   6  13
ATOM     13  N   LIG d   1     -15.286  67.234 120.764  0.00  0.00    -0.311 N 
ATOM     14  C   LIG d   1     -15.614  67.375 119.481  0.00  0.00     0.210 C 
ATOM     15  C   LIG d   1     -17.108  67.588 119.216  0.00  0.00     0.109 C 
ATOM     16  O   LIG d   1     -14.814  67.312 118.536  0.00  0.00    -0.276 OA
ATOM     17  H   LIG d   1     -16.003  67.267 121.463  0.00  0.00     0.149 HD
ENDBRANCH   6  13
BRANCH   5  18
ATOM     18  N   LIG d   1     -13.470  64.926 119.924  0.00  0.00     0.381 N 
ATOM     19  H   LIG d   1     -12.555  64.996 119.526  0.00  0.00    -0.090 HD
ATOM     20  H   LIG d   1     -14.111  65.422 119.330  0.00  0.00    -0.090 HD
ATOM     21  H   LIG d   1     -13.739  63.969 119.990  0.00  0.00    -0.090 HD
ENDBRANCH   5  18
BRANCH   3  22
ATOM     22  C   LIG d   1     -10.994  65.595 123.968  0.00  0.00     0.382 C 
ATOM     23  O   LIG d   1     -10.280  66.382 124.635  0.00  0.00    -0.241 OA
ATOM     24  O   LIG d   1     -10.836  64.366 124.096  0.00  0.00    -0.241 OA
ENDBRANCH   3  22
TORSDOF 7
ENDMDL
MODEL 7
REMARK VINA RESULT:      -4.6     15.327     16.900
REMARK  7 active torsions:
REMARK  status: ('A' for Active; 'I' for Inactive)
REMARK    1  A    between atoms: C_2  and  C_3 
REMARK    2  A    between atoms: C_3  and  O_6 
REMARK    3  A    between atoms: C_3  and  C_4 
REMARK    4  A    between atoms: C_7  and  O_6 
REMARK    5  A    between atoms: C_9  and  C_10 
REMARK    6  A    between atoms: N_15  and  C_14 
REMARK    7  A    between atoms: N_20  and  C_19 
REMARK       I    between atoms: C_22  and  N_20 
ROOT
ATOM      1  C   LIG d   1     -14.886  65.386 119.333  0.00  0.00     0.161 C 
ATOM      2  C   LIG d   1     -14.900  66.296 118.263  0.00  0.00     0.016 C 
ATOM      3  C   LIG d   1     -15.941  66.361 117.309  0.00  0.00     0.038 C 
ATOM      4  C   LIG d   1     -17.122  65.615 117.449  0.00  0.00     0.028 C 
ATOM      5  C   LIG d   1     -16.932  64.321 118.232  0.00  0.00    -0.047 C 
ATOM      6  C   LIG d   1     -16.217  64.641 119.565  0.00  0.00     0.091 C 
ENDROOT
BRANCH   1   7
ATOM      7  O   LIG d   1     -14.469  66.055 120.539  0.00  0.00    -0.368 OA
BRANCH   7   8
ATOM      8  C   LIG d   1     -14.521  67.503 120.515  0.00  0.00     0.119 C 
BRANCH   8   9
ATOM      9  C   LIG d   1     -13.445  68.021 121.489  0.00  0.00     0.028 C 
ATOM     10  C   LIG d   1     -12.736  66.882 122.240  0.00  0.00     0.006 C 
ENDBRANCH   8   9
BRANCH   8  11
ATOM     11  C   LIG d   1     -15.851  68.023 121.067  0.00  0.00     0.028 C 
ATOM     12  C   LIG d   1     -16.609  68.906 120.062  0.00  0.00     0.006 C 
ENDBRANCH   8  11
ENDBRANCH   7   8
ENDBRANCH   1   7
BRANCH   6  13
ATOM     13  N   LIG d   1     -15.917  63.419 120.355  0.00  0.00    -0.311 N 
ATOM     14  C   LIG d   1     -16.717  62.948 121.311  0.00  0.00     0.210 C 
ATOM     15  C   LIG d   1     -16.210  61.687 122.016  0.00  0.00     0.109 C 
ATOM     16  O   LIG d   1     -17.814  63.438 121.620  0.00  0.00    -0.276 OA
ATOM     17  H   LIG d   1     -15.062  62.941 120.149  0.00  0.00     0.149 HD
ENDBRANCH   6  13
BRANCH   5  18
ATOM     18  N   LIG d   1     -18.263  63.714 118.421  0.00  0.00     0.381 N 
ATOM     19  H   LIG d   1     -18.182  62.885 118.975  0.00  0.00    -0.090 HD
ATOM     20  H   LIG d   1     -18.634  63.459 117.523  0.00  0.00    -0.090 HD
ATOM     21  H   LIG d   1     -18.873  64.363 118.868  0.00  0.00    -0.090 HD
ENDBRANCH   5  18
BRANCH   3  22
ATOM     22  C   LIG d   1     -15.790  67.149 116.179  0.00  0.00     0.382 C 
ATOM     23  O   LIG d   1     -15.421  66.631 115.098  0.00  0.00    -0.241 OA
ATOM     24  O   LIG d   1     -15.976  68.379 116.237  0.00  0.00    -0.241 OA
ENDBRANCH   3  22
TORSDOF 7
ENDMDL
MODEL 8
REMARK VINA RESULT:      -4.5     15.081     17.629
REMARK  7 active torsions:
REMARK  status: ('A' for Active; 'I' for Inactive)
REMARK    1  A    between atoms: C_2  and  C_3 
REMARK    2  A    between atoms: C_3  and  O_6 
REMARK    3  A    between atoms: C_3  and  C_4 
REMARK    4  A    between atoms: C_7  and  O_6 
REMARK    5  A    between atoms: C_9  and  C_10 
REMARK    6  A    between atoms: N_15  and  C_14 
REMARK    7  A    between atoms: N_20  and  C_19 
REMARK       I    between atoms: C_22  and  N_20 
ROOT
ATOM      1  C   LIG d   1     -15.401  67.658 120.711  0.00  0.00     0.161 C 
ATOM      2  C   LIG d   1     -14.982  68.366 121.850  0.00  0.00     0.016 C 
ATOM      3  C   LIG d   1     -13.811  68.049 122.577  0.00  0.00     0.038 C 
ATOM      4  C   LIG d   1     -12.894  67.090 122.122  0.00  0.00     0.028 C 
ATOM      5  C   LIG d   1     -13.528  66.008 121.255  0.00  0.00    -0.047 C 
ATOM      6  C   LIG d   1     -14.354  66.681 120.136  0.00  0.00     0.091 C 
ENDROOT
BRANCH   1   7
ATOM      7  O   LIG d   1     -15.836  68.583 119.694  0.00  0.00    -0.368 OA
BRANCH   7   8
ATOM      8  C   LIG d   1     -17.267  68.682 119.493  0.00  0.00     0.119 C 
BRANCH   8   9
ATOM      9  C   LIG d   1     -17.760  69.914 120.275  0.00  0.00     0.028 C 
ATOM     10  C   LIG d   1     -17.340  71.237 119.612  0.00  0.00     0.006 C 
ENDBRANCH   8   9
BRANCH   8  11
ATOM     11  C   LIG d   1     -18.001  67.488 120.112  0.00  0.00     0.028 C 
ATOM     12  C   LIG d   1     -18.681  66.597 119.060  0.00  0.00     0.006 C 
ENDBRANCH   8  11
ENDBRANCH   7   8
ENDBRANCH   1   7
BRANCH   6  13
ATOM     13  N   LIG d   1     -15.077  65.694 119.293  0.00  0.00    -0.311 N 
ATOM     14  C   LIG d   1     -15.158  65.783 117.966  0.00  0.00     0.210 C 
ATOM     15  C   LIG d   1     -15.968  64.671 117.292  0.00  0.00     0.109 C 
ATOM     16  O   LIG d   1     -14.610  66.659 117.281  0.00  0.00    -0.276 OA
ATOM     17  H   LIG d   1     -15.525  64.932 119.764  0.00  0.00     0.149 HD
ENDBRANCH   6  13
BRANCH   5  18
ATOM     18  N   LIG d   1     -12.440  65.156 120.738  0.00  0.00     0.381 N 
ATOM     19  H   LIG d   1     -12.322  64.360 121.331  0.00  0.00    -0.090 HD
ATOM     20  H   LIG d   1     -11.584  65.683 120.743  0.00  0.00    -0.090 HD
ATOM     21  H   LIG d   1     -12.650  64.860 119.810  0.00  0.00    -0.090 HD
ENDBRANCH   5  18
BRANCH   3  22
ATOM     22  C   LIG d   1     -13.569  68.666 123.794  0.00  0.00     0.382 C 
ATOM     23  O   LIG d   1     -14.125  69.758 124.065  0.00  0.00    -0.241 OA
ATOM     24  O   LIG d   1     -12.768  68.168 124.607  0.00  0.00    -0.241 OA
ENDBRANCH   3  22
TORSDOF 7
ENDMDL
MODEL 9
REMARK VINA RESULT:      -4.5      2.166      3.261
REMARK  7 active torsions:
REMARK  status: ('A' for Active; 'I' for Inactive)
REMARK    1  A    between atoms: C_2  and  C_3 
REMARK    2  A    between atoms: C_3  and  O_6 
REMARK    3  A    between atoms: C_3  and  C_4 
REMARK    4  A    between atoms: C_7  and  O_6 
REMARK    5  A    between atoms: C_9  and  C_10 
REMARK    6  A    between atoms: N_15  and  C_14 
REMARK    7  A    between atoms: N_20  and  C_19 
REMARK       I    between atoms: C_22  and  N_20 
ROOT
ATOM      1  C   LIG d   1       1.552  57.984 119.311  0.00  0.00     0.161 C 
ATOM      2  C   LIG d   1       0.510  58.635 118.628  0.00  0.00     0.016 C 
ATOM      3  C   LIG d   1      -0.228  58.036 117.581  0.00  0.00     0.038 C 
ATOM      4  C   LIG d   1      -0.074  56.683 117.246  0.00  0.00     0.028 C 
ATOM      5  C   LIG d   1       1.312  56.133 117.565  0.00  0.00    -0.047 C 
ATOM      6  C   LIG d   1       1.659  56.470 119.033  0.00  0.00     0.091 C 
ENDROOT
BRANCH   1   7
ATOM      7  O   LIG d   1       1.435  58.227 120.727  0.00  0.00    -0.368 OA
BRANCH   7   8
ATOM      8  C   LIG d   1       2.148  59.380 121.237  0.00  0.00     0.119 C 
BRANCH   8   9
ATOM      9  C   LIG d   1       3.638  58.997 121.332  0.00  0.00     0.028 C 
ATOM     10  C   LIG d   1       3.993  58.352 122.683  0.00  0.00     0.006 C 
ENDBRANCH   8   9
BRANCH   8  11
ATOM     11  C   LIG d   1       1.722  59.710 122.670  0.00  0.00     0.028 C 
ATOM     12  C   LIG d   1       0.215  59.981 122.796  0.00  0.00     0.006 C 
ENDBRANCH   8  11
ENDBRANCH   7   8
ENDBRANCH   1   7
BRANCH   6  13
ATOM     13  N   LIG d   1       3.034  56.042 119.404  0.00  0.00    -0.311 N 
ATOM     14  C   LIG d   1       3.311  55.333 120.497  0.00  0.00     0.210 C 
ATOM     15  C   LIG d   1       4.796  55.014 120.701  0.00  0.00     0.109 C 
ATOM     16  O   LIG d   1       2.466  54.912 121.300  0.00  0.00    -0.276 OA
ATOM     17  H   LIG d   1       3.777  56.314 118.791  0.00  0.00     0.149 HD
ENDBRANCH   6  13
BRANCH   5  18
ATOM     18  N   LIG d   1       1.291  54.684 117.294  0.00  0.00     0.381 N 
ATOM     19  H   LIG d   1       1.887  54.475 116.518  0.00  0.00    -0.090 HD
ATOM     20  H   LIG d   1       0.353  54.412 117.053  0.00  0.00    -0.090 HD
ATOM     21  H   LIG d   1       1.594  54.181 118.099  0.00  0.00    -0.090 HD
ENDBRANCH   5  18
BRANCH   3  22
ATOM     22  C   LIG d   1      -1.104  58.805 116.832  0.00  0.00     0.382 C 
ATOM     23  O   LIG d   1      -0.659  59.622 115.989  0.00  0.00    -0.241 OA
ATOM     24  O   LIG d   1      -2.333  58.725 117.018  0.00  0.00    -0.241 OA
ENDBRANCH   3  22
TORSDOF 7
ENDMDL
