MODEL 1
REMARK VINA RESULT:      -5.5      0.000      0.000
REMARK  7 active torsions:
REMARK  status: ('A' for Active; 'I' for Inactive)
REMARK    1  A    between atoms: C_2  and  C_3 
REMARK    2  A    between atoms: C_3  and  O_6 
REMARK    3  A    between atoms: C_3  and  C_4 
REMARK    4  A    between atoms: C_7  and  O_6 
REMARK    5  A    between atoms: C_9  and  C_10 
REMARK    6  A    between atoms: N_15  and  C_14 
REMARK    7  A    between atoms: N_20  and  C_19 
REMARK       I    between atoms: C_22  and  N_20 
ROOT
ATOM      1  C   LIG d   1       0.205  58.073 119.472  0.00  0.00     0.161 C 
ATOM      2  C   LIG d   1       0.003  58.939 118.385  0.00  0.00     0.016 C 
ATOM      3  C   LIG d   1      -0.203  58.490 117.060  0.00  0.00     0.038 C 
ATOM      4  C   LIG d   1      -0.373  57.131 116.756  0.00  0.00     0.028 C 
ATOM      5  C   LIG d   1       0.325  56.198 117.740  0.00  0.00    -0.047 C 
ATOM      6  C   LIG d   1      -0.088  56.586 119.178  0.00  0.00     0.091 C 
ENDROOT
BRANCH   1   7
ATOM      7  O   LIG d   1      -0.566  58.521 120.604  0.00  0.00    -0.368 OA
BRANCH   7   8
ATOM      8  C   LIG d   1      -1.707  59.362 120.305  0.00  0.00     0.119 C 
BRANCH   8   9
ATOM      9  C   LIG d   1      -1.850  60.376 121.457  0.00  0.00     0.028 C 
ATOM     10  C   LIG d   1      -3.223  60.294 122.144  0.00  0.00     0.006 C 
ENDBRANCH   8   9
BRANCH   8  11
ATOM     11  C   LIG d   1      -3.010  58.557 120.309  0.00  0.00     0.028 C 
ATOM     12  C   LIG d   1      -3.503  58.214 118.894  0.00  0.00     0.006 C 
ENDBRANCH   8  11
ENDBRANCH   7   8
ENDBRANCH   1   7
BRANCH   6  13
ATOM     13  N   LIG d   1       0.616  55.777 120.207  0.00  0.00    -0.311 N 
ATOM     14  C   LIG d   1      -0.009  54.943 121.037  0.00  0.00     0.210 C 
ATOM     15  C   LIG d   1       0.902  54.221 122.035  0.00  0.00     0.109 C 
ATOM     16  O   LIG d   1      -1.226  54.708 121.019  0.00  0.00    -0.276 OA
ATOM     17  H   LIG d   1       1.609  55.883 120.270  0.00  0.00     0.149 HD
ENDBRANCH   6  13
BRANCH   5  18
ATOM     18  N   LIG d   1      -0.049  54.816 117.385  0.00  0.00     0.381 N 
ATOM     19  H   LIG d   1       0.743  54.339 117.002  0.00  0.00    -0.090 HD
ATOM     20  H   LIG d   1      -0.769  54.843 116.684  0.00  0.00    -0.090 HD
ATOM     21  H   LIG d   1      -0.378  54.334 118.192  0.00  0.00    -0.090 HD
ENDBRANCH   5  18
BRANCH   3  22
ATOM     22  C   LIG d   1      -0.201  59.403 116.017  0.00  0.00     0.382 C 
ATOM     23  O   LIG d   1      -1.161  59.434 115.209  0.00  0.00    -0.241 OA
ATOM     24  O   LIG d   1       0.768  60.167 115.847  0.00  0.00    -0.241 OA
ENDBRANCH   3  22
TORSDOF 7
ENDMDL
MODEL 2
REMARK VINA RESULT:      -5.5      2.158      3.053
REMARK  7 active torsions:
REMARK  status: ('A' for Active; 'I' for Inactive)
REMARK    1  A    between atoms: C_2  and  C_3 
REMARK    2  A    between atoms: C_3  and  O_6 
REMARK    3  A    between atoms: C_3  and  C_4 
REMARK    4  A    between atoms: C_7  and  O_6 
REMARK    5  A    between atoms: C_9  and  C_10 
REMARK    6  A    between atoms: N_15  and  C_14 
REMARK    7  A    between atoms: N_20  and  C_19 
REMARK       I    between atoms: C_22  and  N_20 
ROOT
ATOM      1  C   LIG d   1       0.375  57.494 118.697  0.00  0.00     0.161 C 
ATOM      2  C   LIG d   1       0.497  58.292 117.547  0.00  0.00     0.016 C 
ATOM      3  C   LIG d   1      -0.611  58.805 116.834  0.00  0.00     0.038 C 
ATOM      4  C   LIG d   1      -1.924  58.678 117.313  0.00  0.00     0.028 C 
ATOM      5  C   LIG d   1      -2.130  57.451 118.195  0.00  0.00    -0.047 C 
ATOM      6  C   LIG d   1      -1.046  57.437 119.296  0.00  0.00     0.091 C 
ENDROOT
BRANCH   1   7
ATOM      7  O   LIG d   1       1.323  57.924 119.694  0.00  0.00    -0.368 OA
BRANCH   7   8
ATOM      8  C   LIG d   1       1.622  59.341 119.720  0.00  0.00     0.119 C 
BRANCH   8   9
ATOM      9  C   LIG d   1       3.137  59.491 119.956  0.00  0.00     0.028 C 
ATOM     10  C   LIG d   1       3.460  60.084 121.337  0.00  0.00     0.006 C 
ENDBRANCH   8   9
BRANCH   8  11
ATOM     11  C   LIG d   1       0.955  60.029 120.915  0.00  0.00     0.028 C 
ATOM     12  C   LIG d   1      -0.346  60.754 120.536  0.00  0.00     0.006 C 
ENDBRANCH   8  11
ENDBRANCH   7   8
ENDBRANCH   1   7
BRANCH   6  13
ATOM     13  N   LIG d   1      -1.124  56.225 120.153  0.00  0.00    -0.311 N 
ATOM     14  C   LIG d   1      -1.206  56.271 121.482  0.00  0.00     0.210 C 
ATOM     15  C   LIG d   1      -1.257  54.906 122.174  0.00  0.00     0.109 C 
ATOM     16  O   LIG d   1      -1.274  57.313 122.151  0.00  0.00    -0.276 OA
ATOM     17  H   LIG d   1      -1.107  55.338 119.691  0.00  0.00     0.149 HD
ENDBRANCH   6  13
BRANCH   5  18
ATOM     18  N   LIG d   1      -3.502  57.517 118.735  0.00  0.00     0.381 N 
ATOM     19  H   LIG d   1      -3.907  56.602 118.743  0.00  0.00    -0.090 HD
ATOM     20  H   LIG d   1      -4.058  58.103 118.138  0.00  0.00    -0.090 HD
ATOM     21  H   LIG d   1      -3.487  57.890 119.659  0.00  0.00    -0.090 HD
ENDBRANCH   5  18
BRANCH   3  22
ATOM     22  C   LIG d   1      -0.414  59.419 115.607  0.00  0.00     0.382 C 
ATOM     23  O   LIG d   1      -1.397  59.847 114.955  0.00  0.00    -0.241 OA
ATOM     24  O   LIG d   1       0.730  59.512 115.123  0.00  0.00    -0.241 OA
ENDBRANCH   3  22
TORSDOF 7
ENDMDL
MODEL 3
REMARK VINA RESULT:      -5.5     33.604     35.795
REMARK  7 active torsions:
REMARK  status: ('A' for Active; 'I' for Inactive)
REMARK    1  A    between atoms: C_2  and  C_3 
REMARK    2  A    between atoms: C_3  and  O_6 
REMARK    3  A    between atoms: C_3  and  C_4 
REMARK    4  A    between atoms: C_7  and  O_6 
REMARK    5  A    between atoms: C_9  and  C_10 
REMARK    6  A    between atoms: N_15  and  C_14 
REMARK    7  A    between atoms: N_20  and  C_19 
REMARK       I    between atoms: C_22  and  N_20 
ROOT
ATOM      1  C   LIG d   1      -4.353  92.544 118.103  0.00  0.00     0.161 C 
ATOM      2  C   LIG d   1      -4.896  91.726 117.098  0.00  0.00     0.016 C 
ATOM      3  C   LIG d   1      -6.133  91.989 116.465  0.00  0.00     0.038 C 
ATOM      4  C   LIG d   1      -6.843  93.178 116.690  0.00  0.00     0.028 C 
ATOM      5  C   LIG d   1      -6.585  93.787 118.064  0.00  0.00    -0.047 C 
ATOM      6  C   LIG d   1      -5.059  93.904 118.282  0.00  0.00     0.091 C 
ENDROOT
BRANCH   1   7
ATOM      7  O   LIG d   1      -2.944  92.737 117.866  0.00  0.00    -0.368 OA
BRANCH   7   8
ATOM      8  C   LIG d   1      -2.047  92.126 118.825  0.00  0.00     0.119 C 
BRANCH   8   9
ATOM      9  C   LIG d   1      -0.820  93.048 118.965  0.00  0.00     0.028 C 
ATOM     10  C   LIG d   1       0.031  93.092 117.685  0.00  0.00     0.006 C 
ENDBRANCH   8   9
BRANCH   8  11
ATOM     11  C   LIG d   1      -1.496  90.796 118.303  0.00  0.00     0.028 C 
ATOM     12  C   LIG d   1      -2.247  89.578 118.864  0.00  0.00     0.006 C 
ENDBRANCH   8  11
ENDBRANCH   7   8
ENDBRANCH   1   7
BRANCH   6  13
ATOM     13  N   LIG d   1      -4.717  94.413 119.636  0.00  0.00    -0.311 N 
ATOM     14  C   LIG d   1      -4.525  95.702 119.908  0.00  0.00     0.210 C 
ATOM     15  C   LIG d   1      -4.162  96.009 121.364  0.00  0.00     0.109 C 
ATOM     16  O   LIG d   1      -4.652  96.624 119.088  0.00  0.00    -0.276 OA
ATOM     17  H   LIG d   1      -4.625  93.736 120.368  0.00  0.00     0.149 HD
ENDBRANCH   6  13
BRANCH   5  18
ATOM     18  N   LIG d   1      -7.277  95.089 118.112  0.00  0.00     0.381 N 
ATOM     19  H   LIG d   1      -7.766  95.181 118.979  0.00  0.00    -0.090 HD
ATOM     20  H   LIG d   1      -7.948  95.128 117.365  0.00  0.00    -0.090 HD
ATOM     21  H   LIG d   1      -6.617  95.829 118.014  0.00  0.00    -0.090 HD
ENDBRANCH   5  18
BRANCH   3  22
ATOM     22  C   LIG d   1      -6.692  91.037 115.626  0.00  0.00     0.382 C 
ATOM     23  O   LIG d   1      -6.000  90.068 115.230  0.00  0.00    -0.241 OA
ATOM     24  O   LIG d   1      -7.864  91.159 115.224  0.00  0.00    -0.241 OA
ENDBRANCH   3  22
TORSDOF 7
ENDMDL
MODEL 4
REMARK VINA RESULT:      -5.3     19.096     21.275
REMARK  7 active torsions:
REMARK  status: ('A' for Active; 'I' for Inactive)
REMARK    1  A    between atoms: C_2  and  C_3 
REMARK    2  A    between atoms: C_3  and  O_6 
REMARK    3  A    between atoms: C_3  and  C_4 
REMARK    4  A    between atoms: C_7  and  O_6 
REMARK    5  A    between atoms: C_9  and  C_10 
REMARK    6  A    between atoms: N_15  and  C_14 
REMARK    7  A    between atoms: N_20  and  C_19 
REMARK       I    between atoms: C_22  and  N_20 
ROOT
ATOM      1  C   LIG d   1      -7.209  77.143 117.870  0.00  0.00     0.161 C 
ATOM      2  C   LIG d   1      -8.308  77.901 118.309  0.00  0.00     0.016 C 
ATOM      3  C   LIG d   1      -8.277  79.307 118.448  0.00  0.00     0.038 C 
ATOM      4  C   LIG d   1      -7.185  80.072 118.012  0.00  0.00     0.028 C 
ATOM      5  C   LIG d   1      -5.865  79.310 118.034  0.00  0.00    -0.047 C 
ATOM      6  C   LIG d   1      -6.046  77.971 117.284  0.00  0.00     0.091 C 
ENDROOT
BRANCH   1   7
ATOM      7  O   LIG d   1      -7.647  76.151 116.921  0.00  0.00    -0.368 OA
BRANCH   7   8
ATOM      8  C   LIG d   1      -7.649  74.780 117.387  0.00  0.00     0.119 C 
BRANCH   8   9
ATOM      9  C   LIG d   1      -6.616  74.003 116.547  0.00  0.00     0.028 C 
ATOM     10  C   LIG d   1      -6.749  72.480 116.714  0.00  0.00     0.006 C 
ENDBRANCH   8   9
BRANCH   8  11
ATOM     11  C   LIG d   1      -8.992  74.099 117.108  0.00  0.00     0.028 C 
ATOM     12  C   LIG d   1     -10.121  75.102 116.824  0.00  0.00     0.006 C 
ENDBRANCH   8  11
ENDBRANCH   7   8
ENDBRANCH   1   7
BRANCH   6  13
ATOM     13  N   LIG d   1      -4.824  77.125 117.331  0.00  0.00    -0.311 N 
ATOM     14  C   LIG d   1      -3.910  77.105 116.363  0.00  0.00     0.210 C 
ATOM     15  C   LIG d   1      -2.737  76.148 116.601  0.00  0.00     0.109 C 
ATOM     16  O   LIG d   1      -3.942  77.812 115.344  0.00  0.00    -0.276 OA
ATOM     17  H   LIG d   1      -4.703  76.543 118.136  0.00  0.00     0.149 HD
ENDBRANCH   6  13
BRANCH   5  18
ATOM     18  N   LIG d   1      -4.839  80.179 117.426  0.00  0.00     0.381 N 
ATOM     19  H   LIG d   1      -4.986  81.127 117.710  0.00  0.00    -0.090 HD
ATOM     20  H   LIG d   1      -4.925  80.133 116.426  0.00  0.00    -0.090 HD
ATOM     21  H   LIG d   1      -3.930  79.879 117.703  0.00  0.00    -0.090 HD
ENDBRANCH   5  18
BRANCH   3  22
ATOM     22  C   LIG d   1      -9.333  79.959 119.068  0.00  0.00     0.382 C 
ATOM     23  O   LIG d   1      -9.136  81.046 119.663  0.00  0.00    -0.241 OA
ATOM     24  O   LIG d   1     -10.471  79.453 119.076  0.00  0.00    -0.241 OA
ENDBRANCH   3  22
TORSDOF 7
ENDMDL
MODEL 5
REMARK VINA RESULT:      -5.3      2.110      4.296
REMARK  7 active torsions:
REMARK  status: ('A' for Active; 'I' for Inactive)
REMARK    1  A    between atoms: C_2  and  C_3 
REMARK    2  A    between atoms: C_3  and  O_6 
REMARK    3  A    between atoms: C_3  and  C_4 
REMARK    4  A    between atoms: C_7  and  O_6 
REMARK    5  A    between atoms: C_9  and  C_10 
REMARK    6  A    between atoms: N_15  and  C_14 
REMARK    7  A    between atoms: N_20  and  C_19 
REMARK       I    between atoms: C_22  and  N_20 
ROOT
ATOM      1  C   LIG d   1      -1.041  57.184 118.131  0.00  0.00     0.161 C 
ATOM      2  C   LIG d   1      -0.730  57.693 116.859  0.00  0.00     0.016 C 
ATOM      3  C   LIG d   1      -0.383  59.043 116.624  0.00  0.00     0.038 C 
ATOM      4  C   LIG d   1      -0.175  59.948 117.675  0.00  0.00     0.028 C 
ATOM      5  C   LIG d   1      -0.967  59.610 118.933  0.00  0.00    -0.047 C 
ATOM      6  C   LIG d   1      -0.711  58.131 119.304  0.00  0.00     0.091 C 
ENDROOT
BRANCH   1   7
ATOM      7  O   LIG d   1      -0.396  55.910 118.319  0.00  0.00    -0.368 OA
BRANCH   7   8
ATOM      8  C   LIG d   1       1.038  55.945 118.524  0.00  0.00     0.119 C 
BRANCH   8   9
ATOM      9  C   LIG d   1       1.674  54.961 117.523  0.00  0.00     0.028 C 
ATOM     10  C   LIG d   1       0.623  54.232 116.669  0.00  0.00     0.006 C 
ENDBRANCH   8   9
BRANCH   8  11
ATOM     11  C   LIG d   1       1.416  55.415 119.910  0.00  0.00     0.028 C 
ATOM     12  C   LIG d   1       0.343  54.492 120.508  0.00  0.00     0.006 C 
ENDBRANCH   8  11
ENDBRANCH   7   8
ENDBRANCH   1   7
BRANCH   6  13
ATOM     13  N   LIG d   1      -1.514  57.693 120.475  0.00  0.00    -0.311 N 
ATOM     14  C   LIG d   1      -1.050  57.692 121.723  0.00  0.00     0.210 C 
ATOM     15  C   LIG d   1      -2.036  57.183 122.779  0.00  0.00     0.109 C 
ATOM     16  O   LIG d   1       0.073  58.094 122.060  0.00  0.00    -0.276 OA
ATOM     17  H   LIG d   1      -2.449  57.380 120.296  0.00  0.00     0.149 HD
ENDBRANCH   6  13
BRANCH   5  18
ATOM     18  N   LIG d   1      -0.551  60.551 119.989  0.00  0.00     0.381 N 
ATOM     19  H   LIG d   1      -1.349  61.043 120.337  0.00  0.00    -0.090 HD
ATOM     20  H   LIG d   1       0.085  61.222 119.594  0.00  0.00    -0.090 HD
ATOM     21  H   LIG d   1      -0.106  60.057 120.731  0.00  0.00    -0.090 HD
ENDBRANCH   5  18
BRANCH   3  22
ATOM     22  C   LIG d   1      -0.280  59.509 115.322  0.00  0.00     0.382 C 
ATOM     23  O   LIG d   1       0.832  59.504 114.741  0.00  0.00    -0.241 OA
ATOM     24  O   LIG d   1      -1.275  59.976 114.737  0.00  0.00    -0.241 OA
ENDBRANCH   3  22
TORSDOF 7
ENDMDL
MODEL 6
REMARK VINA RESULT:      -5.3     34.675     36.780
REMARK  7 active torsions:
REMARK  status: ('A' for Active; 'I' for Inactive)
REMARK    1  A    between atoms: C_2  and  C_3 
REMARK    2  A    between atoms: C_3  and  O_6 
REMARK    3  A    between atoms: C_3  and  C_4 
REMARK    4  A    between atoms: C_7  and  O_6 
REMARK    5  A    between atoms: C_9  and  C_10 
REMARK    6  A    between atoms: N_15  and  C_14 
REMARK    7  A    between atoms: N_20  and  C_19 
REMARK       I    between atoms: C_22  and  N_20 
ROOT
ATOM      1  C   LIG d   1      -6.828  93.930 117.797  0.00  0.00     0.161 C 
ATOM      2  C   LIG d   1      -7.372  92.937 116.964  0.00  0.00     0.016 C 
ATOM      3  C   LIG d   1      -6.625  91.846 116.464  0.00  0.00     0.038 C 
ATOM      4  C   LIG d   1      -5.313  91.590 116.888  0.00  0.00     0.028 C 
ATOM      5  C   LIG d   1      -4.564  92.842 117.331  0.00  0.00    -0.047 C 
ATOM      6  C   LIG d   1      -5.429  93.606 118.360  0.00  0.00     0.091 C 
ENDROOT
BRANCH   1   7
ATOM      7  O   LIG d   1      -7.744  94.222 118.871  0.00  0.00    -0.368 OA
BRANCH   7   8
ATOM      8  C   LIG d   1      -8.689  95.294 118.628  0.00  0.00     0.119 C 
BRANCH   8   9
ATOM      9  C   LIG d   1      -7.963  96.372 117.800  0.00  0.00     0.028 C 
ATOM     10  C   LIG d   1      -7.355  97.478 118.680  0.00  0.00     0.006 C 
ENDBRANCH   8   9
BRANCH   8  11
ATOM     11  C   LIG d   1      -9.091  95.988 119.933  0.00  0.00     0.028 C 
ATOM     12  C   LIG d   1      -8.796  95.135 121.177  0.00  0.00     0.006 C 
ENDBRANCH   8  11
ENDBRANCH   7   8
ENDBRANCH   1   7
BRANCH   6  13
ATOM     13  N   LIG d   1      -4.806  94.888 118.783  0.00  0.00    -0.311 N 
ATOM     14  C   LIG d   1      -4.601  95.218 120.056  0.00  0.00     0.210 C 
ATOM     15  C   LIG d   1      -3.964  96.594 120.273  0.00  0.00     0.109 C 
ATOM     16  O   LIG d   1      -4.855  94.487 121.026  0.00  0.00    -0.276 OA
ATOM     17  H   LIG d   1      -4.540  95.526 118.059  0.00  0.00     0.149 HD
ENDBRANCH   6  13
BRANCH   5  18
ATOM     18  N   LIG d   1      -3.262  92.413 117.876  0.00  0.00     0.381 N 
ATOM     19  H   LIG d   1      -2.880  93.136 118.452  0.00  0.00    -0.090 HD
ATOM     20  H   LIG d   1      -2.628  92.250 117.113  0.00  0.00    -0.090 HD
ATOM     21  H   LIG d   1      -3.373  91.578 118.409  0.00  0.00    -0.090 HD
ENDBRANCH   5  18
BRANCH   3  22
ATOM     22  C   LIG d   1      -7.178  91.020 115.497  0.00  0.00     0.382 C 
ATOM     23  O   LIG d   1      -7.934  91.502 114.619  0.00  0.00    -0.241 OA
ATOM     24  O   LIG d   1      -6.967  89.793 115.519  0.00  0.00    -0.241 OA
ENDBRANCH   3  22
TORSDOF 7
ENDMDL
MODEL 7
REMARK VINA RESULT:      -5.2      2.515      3.573
REMARK  7 active torsions:
REMARK  status: ('A' for Active; 'I' for Inactive)
REMARK    1  A    between atoms: C_2  and  C_3 
REMARK    2  A    between atoms: C_3  and  O_6 
REMARK    3  A    between atoms: C_3  and  C_4 
REMARK    4  A    between atoms: C_7  and  O_6 
REMARK    5  A    between atoms: C_9  and  C_10 
REMARK    6  A    between atoms: N_15  and  C_14 
REMARK    7  A    between atoms: N_20  and  C_19 
REMARK       I    between atoms: C_22  and  N_20 
ROOT
ATOM      1  C   LIG d   1       0.428  58.379 118.767  0.00  0.00     0.161 C 
ATOM      2  C   LIG d   1      -0.803  59.023 118.557  0.00  0.00     0.016 C 
ATOM      3  C   LIG d   1      -1.852  58.466 117.790  0.00  0.00     0.038 C 
ATOM      4  C   LIG d   1      -1.796  57.151 117.303  0.00  0.00     0.028 C 
ATOM      5  C   LIG d   1      -0.375  56.654 117.061  0.00  0.00    -0.047 C 
ATOM      6  C   LIG d   1       0.465  56.898 118.336  0.00  0.00     0.091 C 
ENDROOT
BRANCH   1   7
ATOM      7  O   LIG d   1       0.819  58.509 120.148  0.00  0.00    -0.368 OA
BRANCH   7   8
ATOM      8  C   LIG d   1       1.423  59.771 120.524  0.00  0.00     0.119 C 
BRANCH   8   9
ATOM      9  C   LIG d   1       2.933  59.666 120.235  0.00  0.00     0.028 C 
ATOM     10  C   LIG d   1       3.620  58.585 121.086  0.00  0.00     0.006 C 
ENDBRANCH   8   9
BRANCH   8  11
ATOM     11  C   LIG d   1       1.315  60.013 122.032  0.00  0.00     0.028 C 
ATOM     12  C   LIG d   1       0.880  61.446 122.376  0.00  0.00     0.006 C 
ENDBRANCH   8  11
ENDBRANCH   7   8
ENDBRANCH   1   7
BRANCH   6  13
ATOM     13  N   LIG d   1       1.891  56.517 118.156  0.00  0.00    -0.311 N 
ATOM     14  C   LIG d   1       2.534  55.682 118.970  0.00  0.00     0.210 C 
ATOM     15  C   LIG d   1       4.005  55.440 118.616  0.00  0.00     0.109 C 
ATOM     16  O   LIG d   1       2.018  55.093 119.932  0.00  0.00    -0.276 OA
ATOM     17  H   LIG d   1       2.377  56.924 117.382  0.00  0.00     0.149 HD
ENDBRANCH   6  13
BRANCH   5  18
ATOM     18  N   LIG d   1      -0.459  55.230 116.687  0.00  0.00     0.381 N 
ATOM     19  H   LIG d   1      -1.311  55.059 116.193  0.00  0.00    -0.090 HD
ATOM     20  H   LIG d   1      -0.463  54.674 117.524  0.00  0.00    -0.090 HD
ATOM     21  H   LIG d   1       0.320  54.980 116.118  0.00  0.00    -0.090 HD
ENDBRANCH   5  18
BRANCH   3  22
ATOM     22  C   LIG d   1      -2.956  59.241 117.470  0.00  0.00     0.382 C 
ATOM     23  O   LIG d   1      -4.094  58.910 117.880  0.00  0.00    -0.241 OA
ATOM     24  O   LIG d   1      -2.834  60.243 116.740  0.00  0.00    -0.241 OA
ENDBRANCH   3  22
TORSDOF 7
ENDMDL
MODEL 8
REMARK VINA RESULT:      -5.0     18.722     20.786
REMARK  7 active torsions:
REMARK  status: ('A' for Active; 'I' for Inactive)
REMARK    1  A    between atoms: C_2  and  C_3 
REMARK    2  A    between atoms: C_3  and  O_6 
REMARK    3  A    between atoms: C_3  and  C_4 
REMARK    4  A    between atoms: C_7  and  O_6 
REMARK    5  A    between atoms: C_9  and  C_10 
REMARK    6  A    between atoms: N_15  and  C_14 
REMARK    7  A    between atoms: N_20  and  C_19 
REMARK       I    between atoms: C_22  and  N_20 
ROOT
ATOM      1  C   LIG d   1      -7.117  77.305 117.134  0.00  0.00     0.161 C 
ATOM      2  C   LIG d   1      -8.342  76.647 117.332  0.00  0.00     0.016 C 
ATOM      3  C   LIG d   1      -8.525  75.262 117.117  0.00  0.00     0.038 C 
ATOM      4  C   LIG d   1      -7.450  74.407 116.832  0.00  0.00     0.028 C 
ATOM      5  C   LIG d   1      -6.291  75.105 116.129  0.00  0.00    -0.047 C 
ATOM      6  C   LIG d   1      -5.906  76.370 116.931  0.00  0.00     0.091 C 
ENDROOT
BRANCH   1   7
ATOM      7  O   LIG d   1      -6.869  78.215 118.223  0.00  0.00    -0.368 OA
BRANCH   7   8
ATOM      8  C   LIG d   1      -7.162  79.611 117.967  0.00  0.00     0.119 C 
BRANCH   8   9
ATOM      9  C   LIG d   1      -5.842  80.394 118.104  0.00  0.00     0.028 C 
ATOM     10  C   LIG d   1      -5.143  80.133 119.449  0.00  0.00     0.006 C 
ENDBRANCH   8   9
BRANCH   8  11
ATOM     11  C   LIG d   1      -8.092  80.191 119.037  0.00  0.00     0.028 C 
ATOM     12  C   LIG d   1      -9.575  79.894 118.763  0.00  0.00     0.006 C 
ENDBRANCH   8  11
ENDBRANCH   7   8
ENDBRANCH   1   7
BRANCH   6  13
ATOM     13  N   LIG d   1      -4.835  77.158 116.267  0.00  0.00    -0.311 N 
ATOM     14  C   LIG d   1      -3.734  77.571 116.893  0.00  0.00     0.210 C 
ATOM     15  C   LIG d   1      -2.768  78.387 116.028  0.00  0.00     0.109 C 
ATOM     16  O   LIG d   1      -3.451  77.312 118.072  0.00  0.00    -0.276 OA
ATOM     17  H   LIG d   1      -4.969  77.386 115.301  0.00  0.00     0.149 HD
ENDBRANCH   6  13
BRANCH   5  18
ATOM     18  N   LIG d   1      -5.187  74.133 116.018  0.00  0.00     0.381 N 
ATOM     19  H   LIG d   1      -4.620  74.354 115.223  0.00  0.00    -0.090 HD
ATOM     20  H   LIG d   1      -5.574  73.216 115.884  0.00  0.00    -0.090 HD
ATOM     21  H   LIG d   1      -4.632  74.151 116.845  0.00  0.00    -0.090 HD
ENDBRANCH   5  18
BRANCH   3  22
ATOM     22  C   LIG d   1      -9.803  74.725 117.147  0.00  0.00     0.382 C 
ATOM     23  O   LIG d   1      -9.973  73.498 116.944  0.00  0.00    -0.241 OA
ATOM     24  O   LIG d   1     -10.793  75.459 117.330  0.00  0.00    -0.241 OA
ENDBRANCH   3  22
TORSDOF 7
ENDMDL
MODEL 9
REMARK VINA RESULT:      -5.0     34.406     36.495
REMARK  7 active torsions:
REMARK  status: ('A' for Active; 'I' for Inactive)
REMARK    1  A    between atoms: C_2  and  C_3 
REMARK    2  A    between atoms: C_3  and  O_6 
REMARK    3  A    between atoms: C_3  and  C_4 
REMARK    4  A    between atoms: C_7  and  O_6 
REMARK    5  A    between atoms: C_9  and  C_10 
REMARK    6  A    between atoms: N_15  and  C_14 
REMARK    7  A    between atoms: N_20  and  C_19 
REMARK       I    between atoms: C_22  and  N_20 
ROOT
ATOM      1  C   LIG d   1      -6.274  93.824 118.403  0.00  0.00     0.161 C 
ATOM      2  C   LIG d   1      -6.936  92.992 117.486  0.00  0.00     0.016 C 
ATOM      3  C   LIG d   1      -6.295  91.950 116.777  0.00  0.00     0.038 C 
ATOM      4  C   LIG d   1      -4.972  91.571 117.051  0.00  0.00     0.028 C 
ATOM      5  C   LIG d   1      -4.119  92.707 117.604  0.00  0.00    -0.047 C 
ATOM      6  C   LIG d   1      -4.858  93.354 118.798  0.00  0.00     0.091 C 
ENDROOT
BRANCH   1   7
ATOM      7  O   LIG d   1      -7.088  94.002 119.579  0.00  0.00    -0.368 OA
BRANCH   7   8
ATOM      8  C   LIG d   1      -7.660  95.320 119.766  0.00  0.00     0.119 C 
BRANCH   8   9
ATOM      9  C   LIG d   1      -9.152  95.235 119.389  0.00  0.00     0.028 C 
ATOM     10  C   LIG d   1     -10.039  94.856 120.586  0.00  0.00     0.006 C 
ENDBRANCH   8   9
BRANCH   8  11
ATOM     11  C   LIG d   1      -7.052  96.334 118.791  0.00  0.00     0.028 C 
ATOM     12  C   LIG d   1      -8.096  96.952 117.848  0.00  0.00     0.006 C 
ENDBRANCH   8  11
ENDBRANCH   7   8
ENDBRANCH   1   7
BRANCH   6  13
ATOM     13  N   LIG d   1      -4.130  94.529 119.346  0.00  0.00    -0.311 N 
ATOM     14  C   LIG d   1      -3.639  94.576 120.583  0.00  0.00     0.210 C 
ATOM     15  C   LIG d   1      -2.942  95.889 120.952  0.00  0.00     0.109 C 
ATOM     16  O   LIG d   1      -3.686  93.642 121.398  0.00  0.00    -0.276 OA
ATOM     17  H   LIG d   1      -4.019  95.319 118.741  0.00  0.00     0.149 HD
ENDBRANCH   6  13
BRANCH   5  18
ATOM     18  N   LIG d   1      -2.808  92.141 117.974  0.00  0.00     0.381 N 
ATOM     19  H   LIG d   1      -2.219  92.095 117.167  0.00  0.00    -0.090 HD
ATOM     20  H   LIG d   1      -2.943  91.207 118.319  0.00  0.00    -0.090 HD
ATOM     21  H   LIG d   1      -2.379  92.703 118.676  0.00  0.00    -0.090 HD
ENDBRANCH   5  18
BRANCH   3  22
ATOM     22  C   LIG d   1      -6.967  91.302 115.752  0.00  0.00     0.382 C 
ATOM     23  O   LIG d   1      -7.705  91.955 114.975  0.00  0.00    -0.241 OA
ATOM     24  O   LIG d   1      -6.879  90.067 115.621  0.00  0.00    -0.241 OA
ENDBRANCH   3  22
TORSDOF 7
ENDMDL
