MODEL 1
REMARK VINA RESULT:      -5.5      0.000      0.000
REMARK  7 active torsions:
REMARK  status: ('A' for Active; 'I' for Inactive)
REMARK    1  A    between atoms: C_2  and  C_3 
REMARK    2  A    between atoms: C_3  and  O_6 
REMARK    3  A    between atoms: C_3  and  C_4 
REMARK    4  A    between atoms: C_7  and  O_6 
REMARK    5  A    between atoms: C_9  and  C_10 
REMARK    6  A    between atoms: N_15  and  C_14 
REMARK    7  A    between atoms: N_20  and  C_19 
REMARK       I    between atoms: C_22  and  N_20 
ROOT
ATOM      1  C   LIG d   1      -0.139  57.698 116.509  0.00  0.00     0.161 C 
ATOM      2  C   LIG d   1      -1.109  58.663 116.828  0.00  0.00     0.016 C 
ATOM      3  C   LIG d   1      -2.390  58.342 117.333  0.00  0.00     0.038 C 
ATOM      4  C   LIG d   1      -2.735  57.033 117.699  0.00  0.00     0.028 C 
ATOM      5  C   LIG d   1      -1.971  55.965 116.923  0.00  0.00    -0.047 C 
ATOM      6  C   LIG d   1      -0.458  56.272 117.005  0.00  0.00     0.091 C 
ENDROOT
BRANCH   1   7
ATOM      7  O   LIG d   1       1.150  58.121 116.995  0.00  0.00    -0.368 OA
BRANCH   7   8
ATOM      8  C   LIG d   1       1.365  57.996 118.422  0.00  0.00     0.119 C 
BRANCH   8   9
ATOM      9  C   LIG d   1       1.588  59.414 118.982  0.00  0.00     0.028 C 
ATOM     10  C   LIG d   1       1.832  59.413 120.501  0.00  0.00     0.006 C 
ENDBRANCH   8   9
BRANCH   8  11
ATOM     11  C   LIG d   1       2.658  57.232 118.725  0.00  0.00     0.028 C 
ATOM     12  C   LIG d   1       3.897  57.882 118.090  0.00  0.00     0.006 C 
ENDBRANCH   8  11
ENDBRANCH   7   8
ENDBRANCH   1   7
BRANCH   6  13
ATOM     13  N   LIG d   1       0.357  55.324 116.203  0.00  0.00    -0.311 N 
ATOM     14  C   LIG d   1       0.979  54.268 116.725  0.00  0.00     0.210 C 
ATOM     15  C   LIG d   1       1.782  53.430 115.725  0.00  0.00     0.109 C 
ATOM     16  O   LIG d   1       0.914  53.926 117.915  0.00  0.00    -0.276 OA
ATOM     17  H   LIG d   1       0.437  55.508 115.222  0.00  0.00     0.149 HD
ENDBRANCH   6  13
BRANCH   5  18
ATOM     18  N   LIG d   1      -2.327  54.655 117.500  0.00  0.00     0.381 N 
ATOM     19  H   LIG d   1      -2.319  54.711 118.498  0.00  0.00    -0.090 HD
ATOM     20  H   LIG d   1      -1.640  53.978 117.217  0.00  0.00    -0.090 HD
ATOM     21  H   LIG d   1      -3.229  54.376 117.182  0.00  0.00    -0.090 HD
ENDBRANCH   5  18
BRANCH   3  22
ATOM     22  C   LIG d   1      -3.354  59.332 117.440  0.00  0.00     0.382 C 
ATOM     23  O   LIG d   1      -4.571  59.029 117.401  0.00  0.00    -0.241 OA
ATOM     24  O   LIG d   1      -3.023  60.530 117.530  0.00  0.00    -0.241 OA
ENDBRANCH   3  22
TORSDOF 7
ENDMDL
MODEL 2
REMARK VINA RESULT:      -5.4      2.607      4.741
REMARK  7 active torsions:
REMARK  status: ('A' for Active; 'I' for Inactive)
REMARK    1  A    between atoms: C_2  and  C_3 
REMARK    2  A    between atoms: C_3  and  O_6 
REMARK    3  A    between atoms: C_3  and  C_4 
REMARK    4  A    between atoms: C_7  and  O_6 
REMARK    5  A    between atoms: C_9  and  C_10 
REMARK    6  A    between atoms: N_15  and  C_14 
REMARK    7  A    between atoms: N_20  and  C_19 
REMARK       I    between atoms: C_22  and  N_20 
ROOT
ATOM      1  C   LIG d   1      -1.981  56.183 117.661  0.00  0.00     0.161 C 
ATOM      2  C   LIG d   1      -1.233  56.785 116.636  0.00  0.00     0.016 C 
ATOM      3  C   LIG d   1      -1.030  58.181 116.539  0.00  0.00     0.038 C 
ATOM      4  C   LIG d   1      -1.437  59.062 117.552  0.00  0.00     0.028 C 
ATOM      5  C   LIG d   1      -2.633  58.555 118.351  0.00  0.00    -0.047 C 
ATOM      6  C   LIG d   1      -2.339  57.117 118.836  0.00  0.00     0.091 C 
ENDROOT
BRANCH   1   7
ATOM      7  O   LIG d   1      -1.293  55.012 118.144  0.00  0.00    -0.368 OA
BRANCH   7   8
ATOM      8  C   LIG d   1       0.122  54.933 117.841  0.00  0.00     0.119 C 
BRANCH   8   9
ATOM      9  C   LIG d   1       0.420  53.489 117.396  0.00  0.00     0.028 C 
ATOM     10  C   LIG d   1       1.390  53.431 116.204  0.00  0.00     0.006 C 
ENDBRANCH   8   9
BRANCH   8  11
ATOM     11  C   LIG d   1       0.973  55.156 119.095  0.00  0.00     0.028 C 
ATOM     12  C   LIG d   1       1.361  56.629 119.298  0.00  0.00     0.006 C 
ENDBRANCH   8  11
ENDBRANCH   7   8
ENDBRANCH   1   7
BRANCH   6  13
ATOM     13  N   LIG d   1      -3.492  56.515 119.555  0.00  0.00    -0.311 N 
ATOM     14  C   LIG d   1      -3.609  56.513 120.882  0.00  0.00     0.210 C 
ATOM     15  C   LIG d   1      -4.865  55.821 121.419  0.00  0.00     0.109 C 
ATOM     16  O   LIG d   1      -2.807  57.047 121.663  0.00  0.00    -0.276 OA
ATOM     17  H   LIG d   1      -4.205  56.087 118.996  0.00  0.00     0.149 HD
ENDBRANCH   6  13
BRANCH   5  18
ATOM     18  N   LIG d   1      -2.863  59.503 119.458  0.00  0.00     0.381 N 
ATOM     19  H   LIG d   1      -2.820  59.019 120.332  0.00  0.00    -0.090 HD
ATOM     20  H   LIG d   1      -3.782  59.898 119.361  0.00  0.00    -0.090 HD
ATOM     21  H   LIG d   1      -2.179  60.226 119.435  0.00  0.00    -0.090 HD
ENDBRANCH   5  18
BRANCH   3  22
ATOM     22  C   LIG d   1      -0.447  58.713 115.398  0.00  0.00     0.382 C 
ATOM     23  O   LIG d   1      -1.127  59.426 114.622  0.00  0.00    -0.241 OA
ATOM     24  O   LIG d   1       0.737  58.452 115.114  0.00  0.00    -0.241 OA
ENDBRANCH   3  22
TORSDOF 7
ENDMDL
MODEL 3
REMARK VINA RESULT:      -5.4     34.374     36.133
REMARK  7 active torsions:
REMARK  status: ('A' for Active; 'I' for Inactive)
REMARK    1  A    between atoms: C_2  and  C_3 
REMARK    2  A    between atoms: C_3  and  O_6 
REMARK    3  A    between atoms: C_3  and  C_4 
REMARK    4  A    between atoms: C_7  and  O_6 
REMARK    5  A    between atoms: C_9  and  C_10 
REMARK    6  A    between atoms: N_15  and  C_14 
REMARK    7  A    between atoms: N_20  and  C_19 
REMARK       I    between atoms: C_22  and  N_20 
ROOT
ATOM      1  C   LIG d   1      -5.200  92.900 118.778  0.00  0.00     0.161 C 
ATOM      2  C   LIG d   1      -6.112  92.412 117.827  0.00  0.00     0.016 C 
ATOM      3  C   LIG d   1      -5.728  91.643 116.704  0.00  0.00     0.038 C 
ATOM      4  C   LIG d   1      -4.414  91.180 116.537  0.00  0.00     0.028 C 
ATOM      5  C   LIG d   1      -3.369  92.070 117.201  0.00  0.00    -0.047 C 
ATOM      6  C   LIG d   1      -3.778  92.312 118.672  0.00  0.00     0.091 C 
ENDROOT
BRANCH   1   7
ATOM      7  O   LIG d   1      -5.726  92.704 120.105  0.00  0.00    -0.368 OA
BRANCH   7   8
ATOM      8  C   LIG d   1      -5.909  93.900 120.902  0.00  0.00     0.119 C 
BRANCH   8   9
ATOM      9  C   LIG d   1      -7.377  93.924 121.371  0.00  0.00     0.028 C 
ATOM     10  C   LIG d   1      -8.344  94.338 120.249  0.00  0.00     0.006 C 
ENDBRANCH   8   9
BRANCH   8  11
ATOM     11  C   LIG d   1      -5.733  95.165 120.057  0.00  0.00     0.028 C 
ATOM     12  C   LIG d   1      -4.693  96.133 120.644  0.00  0.00     0.006 C 
ENDBRANCH   8  11
ENDBRANCH   7   8
ENDBRANCH   1   7
BRANCH   6  13
ATOM     13  N   LIG d   1      -2.853  93.242 119.372  0.00  0.00    -0.311 N 
ATOM     14  C   LIG d   1      -2.084  92.878 120.396  0.00  0.00     0.210 C 
ATOM     15  C   LIG d   1      -1.219  93.997 120.985  0.00  0.00     0.109 C 
ATOM     16  O   LIG d   1      -2.011  91.727 120.852  0.00  0.00    -0.276 OA
ATOM     17  H   LIG d   1      -2.826  94.188 119.046  0.00  0.00     0.149 HD
ENDBRANCH   6  13
BRANCH   5  18
ATOM     18  N   LIG d   1      -2.062  91.399 117.067  0.00  0.00     0.381 N 
ATOM     19  H   LIG d   1      -1.373  92.058 116.763  0.00  0.00    -0.090 HD
ATOM     20  H   LIG d   1      -2.137  90.678 116.371  0.00  0.00    -0.090 HD
ATOM     21  H   LIG d   1      -1.791  91.002 117.940  0.00  0.00    -0.090 HD
ENDBRANCH   5  18
BRANCH   3  22
ATOM     22  C   LIG d   1      -6.656  91.364 115.713  0.00  0.00     0.382 C 
ATOM     23  O   LIG d   1      -6.493  91.819 114.555  0.00  0.00    -0.241 OA
ATOM     24  O   LIG d   1      -7.677  90.699 115.973  0.00  0.00    -0.241 OA
ENDBRANCH   3  22
TORSDOF 7
ENDMDL
MODEL 4
REMARK VINA RESULT:      -5.4     17.225     19.370
REMARK  7 active torsions:
REMARK  status: ('A' for Active; 'I' for Inactive)
REMARK    1  A    between atoms: C_2  and  C_3 
REMARK    2  A    between atoms: C_3  and  O_6 
REMARK    3  A    between atoms: C_3  and  C_4 
REMARK    4  A    between atoms: C_7  and  O_6 
REMARK    5  A    between atoms: C_9  and  C_10 
REMARK    6  A    between atoms: N_15  and  C_14 
REMARK    7  A    between atoms: N_20  and  C_19 
REMARK       I    between atoms: C_22  and  N_20 
ROOT
ATOM      1  C   LIG d   1      -7.629  74.378 118.620  0.00  0.00     0.161 C 
ATOM      2  C   LIG d   1      -7.808  73.038 118.238  0.00  0.00     0.016 C 
ATOM      3  C   LIG d   1      -8.933  72.579 117.514  0.00  0.00     0.038 C 
ATOM      4  C   LIG d   1      -9.887  73.462 116.988  0.00  0.00     0.028 C 
ATOM      5  C   LIG d   1     -10.012  74.760 117.779  0.00  0.00    -0.047 C 
ATOM      6  C   LIG d   1      -8.605  75.374 117.959  0.00  0.00     0.091 C 
ENDROOT
BRANCH   1   7
ATOM      7  O   LIG d   1      -6.266  74.776 118.378  0.00  0.00    -0.368 OA
BRANCH   7   8
ATOM      8  C   LIG d   1      -5.613  74.160 117.240  0.00  0.00     0.119 C 
BRANCH   8   9
ATOM      9  C   LIG d   1      -4.125  73.983 117.600  0.00  0.00     0.028 C 
ATOM     10  C   LIG d   1      -3.654  74.994 118.659  0.00  0.00     0.006 C 
ENDBRANCH   8   9
BRANCH   8  11
ATOM     11  C   LIG d   1      -5.629  75.085 116.020  0.00  0.00     0.028 C 
ATOM     12  C   LIG d   1      -5.327  74.344 114.707  0.00  0.00     0.006 C 
ENDBRANCH   8  11
ENDBRANCH   7   8
ENDBRANCH   1   7
BRANCH   6  13
ATOM     13  N   LIG d   1      -8.626  76.603 118.794  0.00  0.00    -0.311 N 
ATOM     14  C   LIG d   1      -7.968  77.717 118.477  0.00  0.00     0.210 C 
ATOM     15  C   LIG d   1      -8.108  78.861 119.486  0.00  0.00     0.109 C 
ATOM     16  O   LIG d   1      -7.307  77.877 117.439  0.00  0.00    -0.276 OA
ATOM     17  H   LIG d   1      -9.163  76.572 119.639  0.00  0.00     0.149 HD
ENDBRANCH   6  13
BRANCH   5  18
ATOM     18  N   LIG d   1     -10.938  75.642 117.044  0.00  0.00     0.381 N 
ATOM     19  H   LIG d   1     -11.842  75.216 116.992  0.00  0.00    -0.090 HD
ATOM     20  H   LIG d   1     -10.594  75.768 116.108  0.00  0.00    -0.090 HD
ATOM     21  H   LIG d   1     -11.005  76.524 117.503  0.00  0.00    -0.090 HD
ENDBRANCH   5  18
BRANCH   3  22
ATOM     22  C   LIG d   1      -9.131  71.217 117.344  0.00  0.00     0.382 C 
ATOM     23  O   LIG d   1      -8.639  70.631 116.349  0.00  0.00    -0.241 OA
ATOM     24  O   LIG d   1      -9.833  70.575 118.148  0.00  0.00    -0.241 OA
ENDBRANCH   3  22
TORSDOF 7
ENDMDL
MODEL 5
REMARK VINA RESULT:      -5.1     16.995     19.296
REMARK  7 active torsions:
REMARK  status: ('A' for Active; 'I' for Inactive)
REMARK    1  A    between atoms: C_2  and  C_3 
REMARK    2  A    between atoms: C_3  and  O_6 
REMARK    3  A    between atoms: C_3  and  C_4 
REMARK    4  A    between atoms: C_7  and  O_6 
REMARK    5  A    between atoms: C_9  and  C_10 
REMARK    6  A    between atoms: N_15  and  C_14 
REMARK    7  A    between atoms: N_20  and  C_19 
REMARK       I    between atoms: C_22  and  N_20 
ROOT
ATOM      1  C   LIG d   1      -6.095  75.222 117.049  0.00  0.00     0.161 C 
ATOM      2  C   LIG d   1      -4.924  74.678 116.494  0.00  0.00     0.016 C 
ATOM      3  C   LIG d   1      -3.713  74.543 117.211  0.00  0.00     0.038 C 
ATOM      4  C   LIG d   1      -3.632  74.806 118.587  0.00  0.00     0.028 C 
ATOM      5  C   LIG d   1      -4.652  75.833 119.068  0.00  0.00    -0.047 C 
ATOM      6  C   LIG d   1      -6.057  75.412 118.580  0.00  0.00     0.091 C 
ENDROOT
BRANCH   1   7
ATOM      7  O   LIG d   1      -7.232  74.422 116.671  0.00  0.00    -0.368 OA
BRANCH   7   8
ATOM      8  C   LIG d   1      -7.474  73.239 117.472  0.00  0.00     0.119 C 
BRANCH   8   9
ATOM      9  C   LIG d   1      -7.247  72.013 116.566  0.00  0.00     0.028 C 
ATOM     10  C   LIG d   1      -8.526  71.181 116.373  0.00  0.00     0.006 C 
ENDBRANCH   8   9
BRANCH   8  11
ATOM     11  C   LIG d   1      -8.939  73.153 117.911  0.00  0.00     0.028 C 
ATOM     12  C   LIG d   1      -9.761  74.382 117.489  0.00  0.00     0.006 C 
ENDBRANCH   8  11
ENDBRANCH   7   8
ENDBRANCH   1   7
BRANCH   6  13
ATOM     13  N   LIG d   1      -7.103  76.406 118.936  0.00  0.00    -0.311 N 
ATOM     14  C   LIG d   1      -7.881  76.298 120.011  0.00  0.00     0.210 C 
ATOM     15  C   LIG d   1      -8.908  77.422 120.182  0.00  0.00     0.109 C 
ATOM     16  O   LIG d   1      -7.798  75.395 120.857  0.00  0.00    -0.276 OA
ATOM     17  H   LIG d   1      -7.217  77.188 118.321  0.00  0.00     0.149 HD
ENDBRANCH   6  13
BRANCH   5  18
ATOM     18  N   LIG d   1      -4.549  75.908 120.538  0.00  0.00     0.381 N 
ATOM     19  H   LIG d   1      -3.598  75.774 120.818  0.00  0.00    -0.090 HD
ATOM     20  H   LIG d   1      -5.103  75.173 120.941  0.00  0.00    -0.090 HD
ATOM     21  H   LIG d   1      -4.875  76.794 120.857  0.00  0.00    -0.090 HD
ENDBRANCH   5  18
BRANCH   3  22
ATOM     22  C   LIG d   1      -2.555  74.179 116.541  0.00  0.00     0.382 C 
ATOM     23  O   LIG d   1      -2.368  74.559 115.360  0.00  0.00    -0.241 OA
ATOM     24  O   LIG d   1      -1.716  73.438 117.087  0.00  0.00    -0.241 OA
ENDBRANCH   3  22
TORSDOF 7
ENDMDL
MODEL 6
REMARK VINA RESULT:      -5.1     17.241     19.992
REMARK  7 active torsions:
REMARK  status: ('A' for Active; 'I' for Inactive)
REMARK    1  A    between atoms: C_2  and  C_3 
REMARK    2  A    between atoms: C_3  and  O_6 
REMARK    3  A    between atoms: C_3  and  C_4 
REMARK    4  A    between atoms: C_7  and  O_6 
REMARK    5  A    between atoms: C_9  and  C_10 
REMARK    6  A    between atoms: N_15  and  C_14 
REMARK    7  A    between atoms: N_20  and  C_19 
REMARK       I    between atoms: C_22  and  N_20 
ROOT
ATOM      1  C   LIG d   1      -7.325  75.339 119.156  0.00  0.00     0.161 C 
ATOM      2  C   LIG d   1      -8.408  76.228 119.265  0.00  0.00     0.016 C 
ATOM      3  C   LIG d   1      -8.472  77.464 118.582  0.00  0.00     0.038 C 
ATOM      4  C   LIG d   1      -7.519  77.829 117.619  0.00  0.00     0.028 C 
ATOM      5  C   LIG d   1      -6.152  77.195 117.849  0.00  0.00    -0.047 C 
ATOM      6  C   LIG d   1      -6.329  75.669 118.025  0.00  0.00     0.091 C 
ENDROOT
BRANCH   1   7
ATOM      7  O   LIG d   1      -7.813  73.990 119.017  0.00  0.00    -0.368 OA
BRANCH   7   8
ATOM      8  C   LIG d   1      -8.058  73.538 117.663  0.00  0.00     0.119 C 
BRANCH   8   9
ATOM      9  C   LIG d   1      -9.562  73.226 117.544  0.00  0.00     0.028 C 
ATOM     10  C   LIG d   1     -10.389  74.463 117.153  0.00  0.00     0.006 C 
ENDBRANCH   8   9
BRANCH   8  11
ATOM     11  C   LIG d   1      -7.346  72.212 117.381  0.00  0.00     0.028 C 
ATOM     12  C   LIG d   1      -8.221  71.219 116.600  0.00  0.00     0.006 C 
ENDBRANCH   8  11
ENDBRANCH   7   8
ENDBRANCH   1   7
BRANCH   6  13
ATOM     13  N   LIG d   1      -5.049  74.982 118.338  0.00  0.00    -0.311 N 
ATOM     14  C   LIG d   1      -4.281  74.407 117.414  0.00  0.00     0.210 C 
ATOM     15  C   LIG d   1      -3.014  73.736 117.954  0.00  0.00     0.109 C 
ATOM     16  O   LIG d   1      -4.512  74.417 116.196  0.00  0.00    -0.276 OA
ATOM     17  H   LIG d   1      -4.770  74.954 119.299  0.00  0.00     0.149 HD
ENDBRANCH   6  13
BRANCH   5  18
ATOM     18  N   LIG d   1      -5.298  77.548 116.699  0.00  0.00     0.381 N 
ATOM     19  H   LIG d   1      -5.839  77.536 115.858  0.00  0.00    -0.090 HD
ATOM     20  H   LIG d   1      -4.567  76.863 116.614  0.00  0.00    -0.090 HD
ATOM     21  H   LIG d   1      -4.901  78.452 116.834  0.00  0.00    -0.090 HD
ENDBRANCH   5  18
BRANCH   3  22
ATOM     22  C   LIG d   1      -9.477  78.368 118.890  0.00  0.00     0.382 C 
ATOM     23  O   LIG d   1      -9.419  79.032 119.953  0.00  0.00    -0.241 OA
ATOM     24  O   LIG d   1     -10.463  78.496 118.139  0.00  0.00    -0.241 OA
ENDBRANCH   3  22
TORSDOF 7
ENDMDL
MODEL 7
REMARK VINA RESULT:      -4.8      1.962      3.258
REMARK  7 active torsions:
REMARK  status: ('A' for Active; 'I' for Inactive)
REMARK    1  A    between atoms: C_2  and  C_3 
REMARK    2  A    between atoms: C_3  and  O_6 
REMARK    3  A    between atoms: C_3  and  C_4 
REMARK    4  A    between atoms: C_7  and  O_6 
REMARK    5  A    between atoms: C_9  and  C_10 
REMARK    6  A    between atoms: N_15  and  C_14 
REMARK    7  A    between atoms: N_20  and  C_19 
REMARK       I    between atoms: C_22  and  N_20 
ROOT
ATOM      1  C   LIG d   1       0.279  58.678 119.011  0.00  0.00     0.161 C 
ATOM      2  C   LIG d   1      -1.069  58.992 118.768  0.00  0.00     0.016 C 
ATOM      3  C   LIG d   1      -1.854  58.343 117.788  0.00  0.00     0.038 C 
ATOM      4  C   LIG d   1      -1.385  57.224 117.083  0.00  0.00     0.028 C 
ATOM      5  C   LIG d   1       0.133  57.193 116.937  0.00  0.00    -0.047 C 
ATOM      6  C   LIG d   1       0.775  57.386 118.329  0.00  0.00     0.091 C 
ENDROOT
BRANCH   1   7
ATOM      7  O   LIG d   1       0.518  58.619 120.431  0.00  0.00    -0.368 OA
BRANCH   7   8
ATOM      8  C   LIG d   1       1.212  59.752 121.009  0.00  0.00     0.119 C 
BRANCH   8   9
ATOM      9  C   LIG d   1       2.619  59.274 121.418  0.00  0.00     0.028 C 
ATOM     10  C   LIG d   1       2.835  59.322 122.940  0.00  0.00     0.006 C 
ENDBRANCH   8   9
BRANCH   8  11
ATOM     11  C   LIG d   1       0.545  60.210 122.309  0.00  0.00     0.028 C 
ATOM     12  C   LIG d   1      -0.839  60.838 122.080  0.00  0.00     0.006 C 
ENDBRANCH   8  11
ENDBRANCH   7   8
ENDBRANCH   1   7
BRANCH   6  13
ATOM     13  N   LIG d   1       2.258  57.452 118.265  0.00  0.00    -0.311 N 
ATOM     14  C   LIG d   1       3.059  56.633 118.944  0.00  0.00     0.210 C 
ATOM     15  C   LIG d   1       4.558  56.886 118.751  0.00  0.00     0.109 C 
ATOM     16  O   LIG d   1       2.671  55.700 119.663  0.00  0.00    -0.276 OA
ATOM     17  H   LIG d   1       2.658  58.160 117.681  0.00  0.00     0.149 HD
ENDBRANCH   6  13
BRANCH   5  18
ATOM     18  N   LIG d   1       0.493  55.909 116.306  0.00  0.00     0.381 N 
ATOM     19  H   LIG d   1       1.488  55.799 116.307  0.00  0.00    -0.090 HD
ATOM     20  H   LIG d   1       0.178  55.916 115.352  0.00  0.00    -0.090 HD
ATOM     21  H   LIG d   1       0.068  55.156 116.799  0.00  0.00    -0.090 HD
ENDBRANCH   5  18
BRANCH   3  22
ATOM     22  C   LIG d   1      -3.111  58.838 117.476  0.00  0.00     0.382 C 
ATOM     23  O   LIG d   1      -4.132  58.147 117.709  0.00  0.00    -0.241 OA
ATOM     24  O   LIG d   1      -3.234  59.948 116.924  0.00  0.00    -0.241 OA
ENDBRANCH   3  22
TORSDOF 7
ENDMDL
MODEL 8
REMARK VINA RESULT:      -4.8     34.612     35.990
REMARK  7 active torsions:
REMARK  status: ('A' for Active; 'I' for Inactive)
REMARK    1  A    between atoms: C_2  and  C_3 
REMARK    2  A    between atoms: C_3  and  O_6 
REMARK    3  A    between atoms: C_3  and  C_4 
REMARK    4  A    between atoms: C_7  and  O_6 
REMARK    5  A    between atoms: C_9  and  C_10 
REMARK    6  A    between atoms: N_15  and  C_14 
REMARK    7  A    between atoms: N_20  and  C_19 
REMARK       I    between atoms: C_22  and  N_20 
ROOT
ATOM      1  C   LIG d   1      -4.245  91.612 119.747  0.00  0.00     0.161 C 
ATOM      2  C   LIG d   1      -4.812  91.210 118.527  0.00  0.00     0.016 C 
ATOM      3  C   LIG d   1      -5.851  91.918 117.880  0.00  0.00     0.038 C 
ATOM      4  C   LIG d   1      -6.293  93.168 118.338  0.00  0.00     0.028 C 
ATOM      5  C   LIG d   1      -6.101  93.366 119.838  0.00  0.00    -0.047 C 
ATOM      6  C   LIG d   1      -4.637  93.033 120.205  0.00  0.00     0.091 C 
ENDROOT
BRANCH   1   7
ATOM      7  O   LIG d   1      -2.811  91.484 119.686  0.00  0.00    -0.368 OA
BRANCH   7   8
ATOM      8  C   LIG d   1      -2.088  92.640 119.194  0.00  0.00     0.119 C 
BRANCH   8   9
ATOM      9  C   LIG d   1      -1.856  92.433 117.685  0.00  0.00     0.028 C 
ATOM     10  C   LIG d   1      -0.379  92.165 117.349  0.00  0.00     0.006 C 
ENDBRANCH   8   9
BRANCH   8  11
ATOM     11  C   LIG d   1      -0.689  92.726 119.811  0.00  0.00     0.028 C 
ATOM     12  C   LIG d   1      -0.699  93.319 121.229  0.00  0.00     0.006 C 
ENDBRANCH   8  11
ENDBRANCH   7   8
ENDBRANCH   1   7
BRANCH   6  13
ATOM     13  N   LIG d   1      -4.386  93.120 121.667  0.00  0.00    -0.311 N 
ATOM     14  C   LIG d   1      -3.955  94.225 122.273  0.00  0.00     0.210 C 
ATOM     15  C   LIG d   1      -3.741  94.093 123.784  0.00  0.00     0.109 C 
ATOM     16  O   LIG d   1      -3.760  95.311 121.707  0.00  0.00    -0.276 OA
ATOM     17  H   LIG d   1      -4.548  92.293 122.208  0.00  0.00     0.149 HD
ENDBRANCH   6  13
BRANCH   5  18
ATOM     18  N   LIG d   1      -6.475  94.757 120.155  0.00  0.00     0.381 N 
ATOM     19  H   LIG d   1      -7.175  94.766 120.869  0.00  0.00    -0.090 HD
ATOM     20  H   LIG d   1      -6.859  95.186 119.332  0.00  0.00    -0.090 HD
ATOM     21  H   LIG d   1      -5.673  95.265 120.460  0.00  0.00    -0.090 HD
ENDBRANCH   5  18
BRANCH   3  22
ATOM     22  C   LIG d   1      -6.487  91.355 116.784  0.00  0.00     0.382 C 
ATOM     23  O   LIG d   1      -6.185  91.728 115.625  0.00  0.00    -0.241 OA
ATOM     24  O   LIG d   1      -7.391  90.512 116.942  0.00  0.00    -0.241 OA
ENDBRANCH   3  22
TORSDOF 7
ENDMDL
MODEL 9
REMARK VINA RESULT:      -4.7     18.655     21.323
REMARK  7 active torsions:
REMARK  status: ('A' for Active; 'I' for Inactive)
REMARK    1  A    between atoms: C_2  and  C_3 
REMARK    2  A    between atoms: C_3  and  O_6 
REMARK    3  A    between atoms: C_3  and  C_4 
REMARK    4  A    between atoms: C_7  and  O_6 
REMARK    5  A    between atoms: C_9  and  C_10 
REMARK    6  A    between atoms: N_15  and  C_14 
REMARK    7  A    between atoms: N_20  and  C_19 
REMARK       I    between atoms: C_22  and  N_20 
ROOT
ATOM      1  C   LIG d   1      -7.310  76.706 117.917  0.00  0.00     0.161 C 
ATOM      2  C   LIG d   1      -8.569  77.276 118.167  0.00  0.00     0.016 C 
ATOM      3  C   LIG d   1      -8.820  78.667 118.108  0.00  0.00     0.038 C 
ATOM      4  C   LIG d   1      -7.857  79.574 117.643  0.00  0.00     0.028 C 
ATOM      5  C   LIG d   1      -6.423  79.102 117.862  0.00  0.00    -0.047 C 
ATOM      6  C   LIG d   1      -6.275  77.670 117.299  0.00  0.00     0.091 C 
ENDROOT
BRANCH   1   7
ATOM      7  O   LIG d   1      -7.459  75.536 117.090  0.00  0.00    -0.368 OA
BRANCH   7   8
ATOM      8  C   LIG d   1      -6.935  74.299 117.634  0.00  0.00     0.119 C 
BRANCH   8   9
ATOM      9  C   LIG d   1      -6.493  73.421 116.447  0.00  0.00     0.028 C 
ATOM     10  C   LIG d   1      -5.712  74.216 115.388  0.00  0.00     0.006 C 
ENDBRANCH   8   9
BRANCH   8  11
ATOM     11  C   LIG d   1      -8.027  73.497 118.348  0.00  0.00     0.028 C 
ATOM     12  C   LIG d   1      -9.305  73.351 117.506  0.00  0.00     0.006 C 
ENDBRANCH   8  11
ENDBRANCH   7   8
ENDBRANCH   1   7
BRANCH   6  13
ATOM     13  N   LIG d   1      -4.925  77.101 117.548  0.00  0.00    -0.311 N 
ATOM     14  C   LIG d   1      -3.932  77.154 116.662  0.00  0.00     0.210 C 
ATOM     15  C   LIG d   1      -2.628  76.487 117.112  0.00  0.00     0.109 C 
ATOM     16  O   LIG d   1      -3.997  77.717 115.560  0.00  0.00    -0.276 OA
ATOM     17  H   LIG d   1      -4.775  76.652 118.431  0.00  0.00     0.149 HD
ENDBRANCH   6  13
BRANCH   5  18
ATOM     18  N   LIG d   1      -5.528  80.076 117.209  0.00  0.00     0.381 N 
ATOM     19  H   LIG d   1      -5.116  79.665 116.395  0.00  0.00    -0.090 HD
ATOM     20  H   LIG d   1      -4.791  80.320 117.847  0.00  0.00    -0.090 HD
ATOM     21  H   LIG d   1      -6.040  80.892 116.954  0.00  0.00    -0.090 HD
ENDBRANCH   5  18
BRANCH   3  22
ATOM     22  C   LIG d   1     -10.034  79.166 118.555  0.00  0.00     0.382 C 
ATOM     23  O   LIG d   1     -10.653  78.578 119.474  0.00  0.00    -0.241 OA
ATOM     24  O   LIG d   1     -10.539  80.171 118.020  0.00  0.00    -0.241 OA
ENDBRANCH   3  22
TORSDOF 7
ENDMDL
