MODEL 1
REMARK VINA RESULT:      -6.2      0.000      0.000
REMARK  7 active torsions:
REMARK  status: ('A' for Active; 'I' for Inactive)
REMARK    1  A    between atoms: C_2  and  C_3 
REMARK    2  A    between atoms: C_3  and  O_6 
REMARK    3  A    between atoms: C_3  and  C_4 
REMARK    4  A    between atoms: C_7  and  O_6 
REMARK    5  A    between atoms: C_9  and  C_10 
REMARK    6  A    between atoms: N_15  and  C_14 
REMARK    7  A    between atoms: N_20  and  C_19 
REMARK       I    between atoms: C_22  and  N_20 
ROOT
ATOM      1  C   LIG d   1       0.135  57.915 118.382  0.00  0.00     0.161 C 
ATOM      2  C   LIG d   1      -0.763  58.795 117.755  0.00  0.00     0.016 C 
ATOM      3  C   LIG d   1      -1.790  58.367 116.882  0.00  0.00     0.038 C 
ATOM      4  C   LIG d   1      -2.086  57.009 116.695  0.00  0.00     0.028 C 
ATOM      5  C   LIG d   1      -0.886  56.092 116.911  0.00  0.00    -0.047 C 
ATOM      6  C   LIG d   1      -0.242  56.423 118.277  0.00  0.00     0.091 C 
ENDROOT
BRANCH   1   7
ATOM      7  O   LIG d   1       0.305  58.293 119.762  0.00  0.00    -0.368 OA
BRANCH   7   8
ATOM      8  C   LIG d   1      -0.731  59.134 120.326  0.00  0.00     0.119 C 
BRANCH   8   9
ATOM      9  C   LIG d   1      -0.059  60.083 121.337  0.00  0.00     0.028 C 
ATOM     10  C   LIG d   1      -1.060  61.052 121.988  0.00  0.00     0.006 C 
ENDBRANCH   8   9
BRANCH   8  11
ATOM     11  C   LIG d   1      -1.732  58.313 121.144  0.00  0.00     0.028 C 
ATOM     12  C   LIG d   1      -1.099  57.066 121.782  0.00  0.00     0.006 C 
ENDBRANCH   8  11
ENDBRANCH   7   8
ENDBRANCH   1   7
BRANCH   6  13
ATOM     13  N   LIG d   1       0.989  55.629 118.530  0.00  0.00    -0.311 N 
ATOM     14  C   LIG d   1       0.996  54.483 119.209  0.00  0.00     0.210 C 
ATOM     15  C   LIG d   1       2.375  53.837 119.372  0.00  0.00     0.109 C 
ATOM     16  O   LIG d   1      -0.014  53.925 119.664  0.00  0.00    -0.276 OA
ATOM     17  H   LIG d   1       1.849  55.993 118.169  0.00  0.00     0.149 HD
ENDBRANCH   6  13
BRANCH   5  18
ATOM     18  N   LIG d   1      -1.366  54.700 116.820  0.00  0.00     0.381 N 
ATOM     19  H   LIG d   1      -0.587  54.078 116.736  0.00  0.00    -0.090 HD
ATOM     20  H   LIG d   1      -1.935  54.606 115.996  0.00  0.00    -0.090 HD
ATOM     21  H   LIG d   1      -1.900  54.470 117.629  0.00  0.00    -0.090 HD
ENDBRANCH   5  18
BRANCH   3  22
ATOM     22  C   LIG d   1      -2.509  59.304 116.155  0.00  0.00     0.382 C 
ATOM     23  O   LIG d   1      -2.373  59.368 114.909  0.00  0.00    -0.241 OA
ATOM     24  O   LIG d   1      -3.256  60.115 116.734  0.00  0.00    -0.241 OA
ENDBRANCH   3  22
TORSDOF 7
ENDMDL
MODEL 2
REMARK VINA RESULT:      -5.4     32.293     34.515
REMARK  7 active torsions:
REMARK  status: ('A' for Active; 'I' for Inactive)
REMARK    1  A    between atoms: C_2  and  C_3 
REMARK    2  A    between atoms: C_3  and  O_6 
REMARK    3  A    between atoms: C_3  and  C_4 
REMARK    4  A    between atoms: C_7  and  O_6 
REMARK    5  A    between atoms: C_9  and  C_10 
REMARK    6  A    between atoms: N_15  and  C_14 
REMARK    7  A    between atoms: N_20  and  C_19 
REMARK       I    between atoms: C_22  and  N_20 
ROOT
ATOM      1  C   LIG d   1      -3.340  91.406 117.935  0.00  0.00     0.161 C 
ATOM      2  C   LIG d   1      -3.866  90.600 116.912  0.00  0.00     0.016 C 
ATOM      3  C   LIG d   1      -5.156  90.782 116.363  0.00  0.00     0.038 C 
ATOM      4  C   LIG d   1      -5.955  91.885 116.699  0.00  0.00     0.028 C 
ATOM      5  C   LIG d   1      -5.673  92.436 118.092  0.00  0.00    -0.047 C 
ATOM      6  C   LIG d   1      -4.153  92.682 118.235  0.00  0.00     0.091 C 
ENDROOT
BRANCH   1   7
ATOM      7  O   LIG d   1      -1.971  91.744 117.636  0.00  0.00    -0.368 OA
BRANCH   7   8
ATOM      8  C   LIG d   1      -0.968  91.176 118.514  0.00  0.00     0.119 C 
BRANCH   8   9
ATOM      9  C   LIG d   1       0.046  90.422 117.633  0.00  0.00     0.028 C 
ATOM     10  C   LIG d   1      -0.470  89.042 117.193  0.00  0.00     0.006 C 
ENDBRANCH   8   9
BRANCH   8  11
ATOM     11  C   LIG d   1      -1.572  90.113 119.437  0.00  0.00     0.028 C 
ATOM     12  C   LIG d   1      -1.392  90.445 120.926  0.00  0.00     0.006 C 
ENDBRANCH   8  11
ENDBRANCH   7   8
ENDBRANCH   1   7
BRANCH   6  13
ATOM     13  N   LIG d   1      -3.780  93.143 119.598  0.00  0.00    -0.311 N 
ATOM     14  C   LIG d   1      -3.008  94.204 119.827  0.00  0.00     0.210 C 
ATOM     15  C   LIG d   1      -2.729  94.493 121.306  0.00  0.00     0.109 C 
ATOM     16  O   LIG d   1      -2.553  94.951 118.948  0.00  0.00    -0.276 OA
ATOM     17  H   LIG d   1      -4.131  92.613 120.371  0.00  0.00     0.149 HD
ENDBRANCH   6  13
BRANCH   5  18
ATOM     18  N   LIG d   1      -6.475  93.663 118.257  0.00  0.00     0.381 N 
ATOM     19  H   LIG d   1      -6.468  94.189 117.406  0.00  0.00    -0.090 HD
ATOM     20  H   LIG d   1      -6.063  94.227 118.979  0.00  0.00    -0.090 HD
ATOM     21  H   LIG d   1      -7.411  93.428 118.503  0.00  0.00    -0.090 HD
ENDBRANCH   5  18
BRANCH   3  22
ATOM     22  C   LIG d   1      -5.675  89.831 115.497  0.00  0.00     0.382 C 
ATOM     23  O   LIG d   1      -6.917  89.717 115.364  0.00  0.00    -0.241 OA
ATOM     24  O   LIG d   1      -4.918  89.057 114.882  0.00  0.00    -0.241 OA
ENDBRANCH   3  22
TORSDOF 7
ENDMDL
MODEL 3
REMARK VINA RESULT:      -5.1     20.775     23.489
REMARK  7 active torsions:
REMARK  status: ('A' for Active; 'I' for Inactive)
REMARK    1  A    between atoms: C_2  and  C_3 
REMARK    2  A    between atoms: C_3  and  O_6 
REMARK    3  A    between atoms: C_3  and  C_4 
REMARK    4  A    between atoms: C_7  and  O_6 
REMARK    5  A    between atoms: C_9  and  C_10 
REMARK    6  A    between atoms: N_15  and  C_14 
REMARK    7  A    between atoms: N_20  and  C_19 
REMARK       I    between atoms: C_22  and  N_20 
ROOT
ATOM      1  C   LIG d   1      -6.314  79.507 118.364  0.00  0.00     0.161 C 
ATOM      2  C   LIG d   1      -7.652  79.127 118.560  0.00  0.00     0.016 C 
ATOM      3  C   LIG d   1      -8.680  80.041 118.889  0.00  0.00     0.038 C 
ATOM      4  C   LIG d   1      -8.465  81.427 118.897  0.00  0.00     0.028 C 
ATOM      5  C   LIG d   1      -7.022  81.815 119.201  0.00  0.00    -0.047 C 
ATOM      6  C   LIG d   1      -6.082  81.029 118.259  0.00  0.00     0.091 C 
ENDROOT
BRANCH   1   7
ATOM      7  O   LIG d   1      -5.781  78.838 117.204  0.00  0.00    -0.368 OA
BRANCH   7   8
ATOM      8  C   LIG d   1      -5.303  77.486 117.411  0.00  0.00     0.119 C 
BRANCH   8   9
ATOM      9  C   LIG d   1      -3.789  77.481 117.125  0.00  0.00     0.028 C 
ATOM     10  C   LIG d   1      -2.959  77.912 118.346  0.00  0.00     0.006 C 
ENDBRANCH   8   9
BRANCH   8  11
ATOM     11  C   LIG d   1      -5.911  76.517 116.393  0.00  0.00     0.028 C 
ATOM     12  C   LIG d   1      -7.138  75.770 116.940  0.00  0.00     0.006 C 
ENDBRANCH   8  11
ENDBRANCH   7   8
ENDBRANCH   1   7
BRANCH   6  13
ATOM     13  N   LIG d   1      -4.647  81.286 118.547  0.00  0.00    -0.311 N 
ATOM     14  C   LIG d   1      -3.758  81.613 117.610  0.00  0.00     0.210 C 
ATOM     15  C   LIG d   1      -2.327  81.815 118.118  0.00  0.00     0.109 C 
ATOM     16  O   LIG d   1      -4.026  81.787 116.411  0.00  0.00    -0.276 OA
ATOM     17  H   LIG d   1      -4.349  81.197 119.499  0.00  0.00     0.149 HD
ENDBRANCH   6  13
BRANCH   5  18
ATOM     18  N   LIG d   1      -6.910  83.277 119.042  0.00  0.00     0.381 N 
ATOM     19  H   LIG d   1      -6.944  83.719 119.939  0.00  0.00    -0.090 HD
ATOM     20  H   LIG d   1      -7.689  83.605 118.498  0.00  0.00    -0.090 HD
ATOM     21  H   LIG d   1      -6.056  83.506 118.583  0.00  0.00    -0.090 HD
ENDBRANCH   5  18
BRANCH   3  22
ATOM     22  C   LIG d   1      -9.930  79.566 119.255  0.00  0.00     0.382 C 
ATOM     23  O   LIG d   1     -10.601  80.171 120.126  0.00  0.00    -0.241 OA
ATOM     24  O   LIG d   1     -10.377  78.515 118.756  0.00  0.00    -0.241 OA
ENDBRANCH   3  22
TORSDOF 7
ENDMDL
MODEL 4
REMARK VINA RESULT:      -5.0     32.471     34.367
REMARK  7 active torsions:
REMARK  status: ('A' for Active; 'I' for Inactive)
REMARK    1  A    between atoms: C_2  and  C_3 
REMARK    2  A    between atoms: C_3  and  O_6 
REMARK    3  A    between atoms: C_3  and  C_4 
REMARK    4  A    between atoms: C_7  and  O_6 
REMARK    5  A    between atoms: C_9  and  C_10 
REMARK    6  A    between atoms: N_15  and  C_14 
REMARK    7  A    between atoms: N_20  and  C_19 
REMARK       I    between atoms: C_22  and  N_20 
ROOT
ATOM      1  C   LIG d   1      -3.339  92.218 118.231  0.00  0.00     0.161 C 
ATOM      2  C   LIG d   1      -4.471  91.954 117.442  0.00  0.00     0.016 C 
ATOM      3  C   LIG d   1      -4.613  90.793 116.649  0.00  0.00     0.038 C 
ATOM      4  C   LIG d   1      -3.692  89.736 116.709  0.00  0.00     0.028 C 
ATOM      5  C   LIG d   1      -2.288  90.179 117.105  0.00  0.00    -0.047 C 
ATOM      6  C   LIG d   1      -2.373  91.025 118.396  0.00  0.00     0.091 C 
ENDROOT
BRANCH   1   7
ATOM      7  O   LIG d   1      -3.747  92.713 119.522  0.00  0.00    -0.368 OA
BRANCH   7   8
ATOM      8  C   LIG d   1      -3.557  94.132 119.749  0.00  0.00     0.119 C 
BRANCH   8   9
ATOM      9  C   LIG d   1      -2.672  94.285 121.001  0.00  0.00     0.028 C 
ATOM     10  C   LIG d   1      -2.586  92.987 121.821  0.00  0.00     0.006 C 
ENDBRANCH   8   9
BRANCH   8  11
ATOM     11  C   LIG d   1      -4.879  94.822 120.099  0.00  0.00     0.028 C 
ATOM     12  C   LIG d   1      -6.024  93.827 120.342  0.00  0.00     0.006 C 
ENDBRANCH   8  11
ENDBRANCH   7   8
ENDBRANCH   1   7
BRANCH   6  13
ATOM     13  N   LIG d   1      -1.053  91.569 118.806  0.00  0.00    -0.311 N 
ATOM     14  C   LIG d   1      -0.258  90.972 119.693  0.00  0.00     0.210 C 
ATOM     15  C   LIG d   1       1.051  91.712 119.988  0.00  0.00     0.109 C 
ATOM     16  O   LIG d   1      -0.498  89.885 120.239  0.00  0.00    -0.276 OA
ATOM     17  H   LIG d   1      -0.765  92.432 118.389  0.00  0.00     0.149 HD
ENDBRANCH   6  13
BRANCH   5  18
ATOM     18  N   LIG d   1      -1.466  88.965 117.263  0.00  0.00     0.381 N 
ATOM     19  H   LIG d   1      -0.565  89.109 116.852  0.00  0.00    -0.090 HD
ATOM     20  H   LIG d   1      -1.913  88.204 116.783  0.00  0.00    -0.090 HD
ATOM     21  H   LIG d   1      -1.366  88.744 118.230  0.00  0.00    -0.090 HD
ENDBRANCH   5  18
BRANCH   3  22
ATOM     22  C   LIG d   1      -5.667  90.698 115.753  0.00  0.00     0.382 C 
ATOM     23  O   LIG d   1      -6.221  89.590 115.552  0.00  0.00    -0.241 OA
ATOM     24  O   LIG d   1      -6.042  91.696 115.110  0.00  0.00    -0.241 OA
ENDBRANCH   3  22
TORSDOF 7
ENDMDL
MODEL 5
REMARK VINA RESULT:      -4.9     34.258     35.723
REMARK  7 active torsions:
REMARK  status: ('A' for Active; 'I' for Inactive)
REMARK    1  A    between atoms: C_2  and  C_3 
REMARK    2  A    between atoms: C_3  and  O_6 
REMARK    3  A    between atoms: C_3  and  C_4 
REMARK    4  A    between atoms: C_7  and  O_6 
REMARK    5  A    between atoms: C_9  and  C_10 
REMARK    6  A    between atoms: N_15  and  C_14 
REMARK    7  A    between atoms: N_20  and  C_19 
REMARK       I    between atoms: C_22  and  N_20 
ROOT
ATOM      1  C   LIG d   1      -3.243  92.438 118.598  0.00  0.00     0.161 C 
ATOM      2  C   LIG d   1      -3.760  91.876 117.419  0.00  0.00     0.016 C 
ATOM      3  C   LIG d   1      -5.129  91.927 117.068  0.00  0.00     0.038 C 
ATOM      4  C   LIG d   1      -6.055  92.681 117.803  0.00  0.00     0.028 C 
ATOM      5  C   LIG d   1      -5.674  92.845 119.271  0.00  0.00    -0.047 C 
ATOM      6  C   LIG d   1      -4.220  93.360 119.357  0.00  0.00     0.091 C 
ENDROOT
BRANCH   1   7
ATOM      7  O   LIG d   1      -2.016  93.137 118.309  0.00  0.00    -0.368 OA
BRANCH   7   8
ATOM      8  C   LIG d   1      -0.802  92.350 118.380  0.00  0.00     0.119 C 
BRANCH   8   9
ATOM      9  C   LIG d   1      -0.187  92.573 119.776  0.00  0.00     0.028 C 
ATOM     10  C   LIG d   1      -0.186  94.055 120.186  0.00  0.00     0.006 C 
ENDBRANCH   8   9
BRANCH   8  11
ATOM     11  C   LIG d   1       0.250  92.856 117.388  0.00  0.00     0.028 C 
ATOM     12  C   LIG d   1       1.263  91.771 116.990  0.00  0.00     0.006 C 
ENDBRANCH   8  11
ENDBRANCH   7   8
ENDBRANCH   1   7
BRANCH   6  13
ATOM     13  N   LIG d   1      -3.739  93.468 120.759  0.00  0.00    -0.311 N 
ATOM     14  C   LIG d   1      -3.771  94.600 121.461  0.00  0.00     0.210 C 
ATOM     15  C   LIG d   1      -3.208  94.497 122.881  0.00  0.00     0.109 C 
ATOM     16  O   LIG d   1      -4.242  95.672 121.052  0.00  0.00    -0.276 OA
ATOM     17  H   LIG d   1      -3.369  92.638 121.180  0.00  0.00     0.149 HD
ENDBRANCH   6  13
BRANCH   5  18
ATOM     18  N   LIG d   1      -6.651  93.764 119.885  0.00  0.00     0.381 N 
ATOM     19  H   LIG d   1      -6.827  94.532 119.268  0.00  0.00    -0.090 HD
ATOM     20  H   LIG d   1      -6.264  94.127 120.738  0.00  0.00    -0.090 HD
ATOM     21  H   LIG d   1      -7.501  93.281 120.076  0.00  0.00    -0.090 HD
ENDBRANCH   5  18
BRANCH   3  22
ATOM     22  C   LIG d   1      -5.590  91.186 115.991  0.00  0.00     0.382 C 
ATOM     23  O   LIG d   1      -6.146  91.762 115.025  0.00  0.00    -0.241 OA
ATOM     24  O   LIG d   1      -5.497  89.944 115.993  0.00  0.00    -0.241 OA
ENDBRANCH   3  22
TORSDOF 7
ENDMDL
MODEL 6
REMARK VINA RESULT:      -4.6     33.651     35.867
REMARK  7 active torsions:
REMARK  status: ('A' for Active; 'I' for Inactive)
REMARK    1  A    between atoms: C_2  and  C_3 
REMARK    2  A    between atoms: C_3  and  O_6 
REMARK    3  A    between atoms: C_3  and  C_4 
REMARK    4  A    between atoms: C_7  and  O_6 
REMARK    5  A    between atoms: C_9  and  C_10 
REMARK    6  A    between atoms: N_15  and  C_14 
REMARK    7  A    between atoms: N_20  and  C_19 
REMARK       I    between atoms: C_22  and  N_20 
ROOT
ATOM      1  C   LIG d   1      -5.098  93.121 118.740  0.00  0.00     0.161 C 
ATOM      2  C   LIG d   1      -5.742  92.422 117.707  0.00  0.00     0.016 C 
ATOM      3  C   LIG d   1      -5.101  91.447 116.909  0.00  0.00     0.038 C 
ATOM      4  C   LIG d   1      -3.804  90.993 117.192  0.00  0.00     0.028 C 
ATOM      5  C   LIG d   1      -2.943  92.028 117.908  0.00  0.00    -0.047 C 
ATOM      6  C   LIG d   1      -3.716  92.561 119.136  0.00  0.00     0.091 C 
ENDROOT
BRANCH   1   7
ATOM      7  O   LIG d   1      -5.959  93.192 119.894  0.00  0.00    -0.368 OA
BRANCH   7   8
ATOM      8  C   LIG d   1      -6.272  94.522 120.376  0.00  0.00     0.119 C 
BRANCH   8   9
ATOM      9  C   LIG d   1      -7.552  94.418 121.226  0.00  0.00     0.028 C 
ATOM     10  C   LIG d   1      -7.450  95.210 122.540  0.00  0.00     0.006 C 
ENDBRANCH   8   9
BRANCH   8  11
ATOM     11  C   LIG d   1      -6.627  95.463 119.221  0.00  0.00     0.028 C 
ATOM     12  C   LIG d   1      -8.098  95.349 118.791  0.00  0.00     0.006 C 
ENDBRANCH   8  11
ENDBRANCH   7   8
ENDBRANCH   1   7
BRANCH   6  13
ATOM     13  N   LIG d   1      -2.979  93.640 119.845  0.00  0.00    -0.311 N 
ATOM     14  C   LIG d   1      -2.598  93.553 121.119  0.00  0.00     0.210 C 
ATOM     15  C   LIG d   1      -1.868  94.786 121.661  0.00  0.00     0.109 C 
ATOM     16  O   LIG d   1      -2.768  92.560 121.841  0.00  0.00    -0.276 OA
ATOM     17  H   LIG d   1      -2.772  94.469 119.324  0.00  0.00     0.149 HD
ENDBRANCH   6  13
BRANCH   5  18
ATOM     18  N   LIG d   1      -1.668  91.378 118.264  0.00  0.00     0.381 N 
ATOM     19  H   LIG d   1      -1.765  90.385 118.199  0.00  0.00    -0.090 HD
ATOM     20  H   LIG d   1      -1.438  91.611 119.214  0.00  0.00    -0.090 HD
ATOM     21  H   LIG d   1      -0.944  91.689 117.654  0.00  0.00    -0.090 HD
ENDBRANCH   5  18
BRANCH   3  22
ATOM     22  C   LIG d   1      -5.745  90.943 115.790  0.00  0.00     0.382 C 
ATOM     23  O   LIG d   1      -5.890  89.704 115.654  0.00  0.00    -0.241 OA
ATOM     24  O   LIG d   1      -6.144  91.709 114.892  0.00  0.00    -0.241 OA
ENDBRANCH   3  22
TORSDOF 7
ENDMDL
MODEL 7
REMARK VINA RESULT:      -4.6     23.994     26.502
REMARK  7 active torsions:
REMARK  status: ('A' for Active; 'I' for Inactive)
REMARK    1  A    between atoms: C_2  and  C_3 
REMARK    2  A    between atoms: C_3  and  O_6 
REMARK    3  A    between atoms: C_3  and  C_4 
REMARK    4  A    between atoms: C_7  and  O_6 
REMARK    5  A    between atoms: C_9  and  C_10 
REMARK    6  A    between atoms: N_15  and  C_14 
REMARK    7  A    between atoms: N_20  and  C_19 
REMARK       I    between atoms: C_22  and  N_20 
ROOT
ATOM      1  C   LIG d   1     -18.716  76.950 119.515  0.00  0.00     0.161 C 
ATOM      2  C   LIG d   1     -18.031  78.074 120.007  0.00  0.00     0.016 C 
ATOM      3  C   LIG d   1     -18.348  78.704 121.233  0.00  0.00     0.038 C 
ATOM      4  C   LIG d   1     -19.279  78.156 122.128  0.00  0.00     0.028 C 
ATOM      5  C   LIG d   1     -20.349  77.309 121.447  0.00  0.00    -0.047 C 
ATOM      6  C   LIG d   1     -19.660  76.273 120.530  0.00  0.00     0.091 C 
ENDROOT
BRANCH   1   7
ATOM      7  O   LIG d   1     -17.773  75.994 118.992  0.00  0.00    -0.368 OA
BRANCH   7   8
ATOM      8  C   LIG d   1     -17.283  75.004 119.930  0.00  0.00     0.119 C 
BRANCH   8   9
ATOM      9  C   LIG d   1     -15.764  75.220 120.079  0.00  0.00     0.028 C 
ATOM     10  C   LIG d   1     -15.380  75.746 121.473  0.00  0.00     0.006 C 
ENDBRANCH   8   9
BRANCH   8  11
ATOM     11  C   LIG d   1     -17.438  73.585 119.375  0.00  0.00     0.028 C 
ATOM     12  C   LIG d   1     -16.175  73.084 118.658  0.00  0.00     0.006 C 
ENDBRANCH   8  11
ENDBRANCH   7   8
ENDBRANCH   1   7
BRANCH   6  13
ATOM     13  N   LIG d   1     -20.637  75.458 119.761  0.00  0.00    -0.311 N 
ATOM     14  C   LIG d   1     -21.075  74.267 120.164  0.00  0.00     0.210 C 
ATOM     15  C   LIG d   1     -22.065  73.587 119.212  0.00  0.00     0.109 C 
ATOM     16  O   LIG d   1     -20.763  73.723 121.234  0.00  0.00    -0.276 OA
ATOM     17  H   LIG d   1     -20.967  75.838 118.896  0.00  0.00     0.149 HD
ENDBRANCH   6  13
BRANCH   5  18
ATOM     18  N   LIG d   1     -21.168  76.690 122.506  0.00  0.00     0.381 N 
ATOM     19  H   LIG d   1     -21.891  76.135 122.094  0.00  0.00    -0.090 HD
ATOM     20  H   LIG d   1     -21.598  77.416 123.051  0.00  0.00    -0.090 HD
ATOM     21  H   LIG d   1     -20.596  76.121 123.091  0.00  0.00    -0.090 HD
ENDBRANCH   5  18
BRANCH   3  22
ATOM     22  C   LIG d   1     -17.759  79.917 121.555  0.00  0.00     0.382 C 
ATOM     23  O   LIG d   1     -16.969  80.464 120.748  0.00  0.00    -0.241 OA
ATOM     24  O   LIG d   1     -17.972  80.449 122.661  0.00  0.00    -0.241 OA
ENDBRANCH   3  22
TORSDOF 7
ENDMDL
MODEL 8
REMARK VINA RESULT:      -4.5     22.064     24.689
REMARK  7 active torsions:
REMARK  status: ('A' for Active; 'I' for Inactive)
REMARK    1  A    between atoms: C_2  and  C_3 
REMARK    2  A    between atoms: C_3  and  O_6 
REMARK    3  A    between atoms: C_3  and  C_4 
REMARK    4  A    between atoms: C_7  and  O_6 
REMARK    5  A    between atoms: C_9  and  C_10 
REMARK    6  A    between atoms: N_15  and  C_14 
REMARK    7  A    between atoms: N_20  and  C_19 
REMARK       I    between atoms: C_22  and  N_20 
ROOT
ATOM      1  C   LIG d   1     -15.931  75.929 120.287  0.00  0.00     0.161 C 
ATOM      2  C   LIG d   1     -16.112  74.788 119.488  0.00  0.00     0.016 C 
ATOM      3  C   LIG d   1     -16.163  73.474 120.008  0.00  0.00     0.038 C 
ATOM      4  C   LIG d   1     -16.188  73.224 121.388  0.00  0.00     0.028 C 
ATOM      5  C   LIG d   1     -15.500  74.307 122.213  0.00  0.00    -0.047 C 
ATOM      6  C   LIG d   1     -16.067  75.685 121.804  0.00  0.00     0.091 C 
ENDROOT
BRANCH   1   7
ATOM      7  O   LIG d   1     -16.833  76.970 119.863  0.00  0.00    -0.368 OA
BRANCH   7   8
ATOM      8  C   LIG d   1     -18.050  77.113 120.638  0.00  0.00     0.119 C 
BRANCH   8   9
ATOM      9  C   LIG d   1     -19.218  76.625 119.759  0.00  0.00     0.028 C 
ATOM     10  C   LIG d   1     -19.756  75.255 120.206  0.00  0.00     0.006 C 
ENDBRANCH   8   9
BRANCH   8  11
ATOM     11  C   LIG d   1     -18.352  78.585 120.934  0.00  0.00     0.028 C 
ATOM     12  C   LIG d   1     -19.655  79.069 120.278  0.00  0.00     0.006 C 
ENDBRANCH   8  11
ENDBRANCH   7   8
ENDBRANCH   1   7
BRANCH   6  13
ATOM     13  N   LIG d   1     -15.389  76.807 122.503  0.00  0.00    -0.311 N 
ATOM     14  C   LIG d   1     -15.848  77.357 123.626  0.00  0.00     0.210 C 
ATOM     15  C   LIG d   1     -15.007  78.515 124.171  0.00  0.00     0.109 C 
ATOM     16  O   LIG d   1     -16.856  76.974 124.240  0.00  0.00    -0.276 OA
ATOM     17  H   LIG d   1     -14.547  77.159 122.091  0.00  0.00     0.149 HD
ENDBRANCH   6  13
BRANCH   5  18
ATOM     18  N   LIG d   1     -15.720  73.990 123.637  0.00  0.00     0.381 N 
ATOM     19  H   LIG d   1     -15.799  74.837 124.164  0.00  0.00    -0.090 HD
ATOM     20  H   LIG d   1     -14.928  73.476 123.982  0.00  0.00    -0.090 HD
ATOM     21  H   LIG d   1     -16.549  73.447 123.741  0.00  0.00    -0.090 HD
ENDBRANCH   5  18
BRANCH   3  22
ATOM     22  C   LIG d   1     -16.150  72.391 119.143  0.00  0.00     0.382 C 
ATOM     23  O   LIG d   1     -16.255  71.226 119.595  0.00  0.00    -0.241 OA
ATOM     24  O   LIG d   1     -15.990  72.562 117.919  0.00  0.00    -0.241 OA
ENDBRANCH   3  22
TORSDOF 7
ENDMDL
MODEL 9
REMARK VINA RESULT:      -4.5     33.013     35.336
REMARK  7 active torsions:
REMARK  status: ('A' for Active; 'I' for Inactive)
REMARK    1  A    between atoms: C_2  and  C_3 
REMARK    2  A    between atoms: C_3  and  O_6 
REMARK    3  A    between atoms: C_3  and  C_4 
REMARK    4  A    between atoms: C_7  and  O_6 
REMARK    5  A    between atoms: C_9  and  C_10 
REMARK    6  A    between atoms: N_15  and  C_14 
REMARK    7  A    between atoms: N_20  and  C_19 
REMARK       I    between atoms: C_22  and  N_20 
ROOT
ATOM      1  C   LIG d   1      -2.772  92.939 118.004  0.00  0.00     0.161 C 
ATOM      2  C   LIG d   1      -2.006  93.565 119.002  0.00  0.00     0.016 C 
ATOM      3  C   LIG d   1      -2.527  93.942 120.261  0.00  0.00     0.038 C 
ATOM      4  C   LIG d   1      -3.820  93.580 120.667  0.00  0.00     0.028 C 
ATOM      5  C   LIG d   1      -4.790  93.393 119.505  0.00  0.00    -0.047 C 
ATOM      6  C   LIG d   1      -4.154  92.436 118.470  0.00  0.00     0.091 C 
ENDROOT
BRANCH   1   7
ATOM      7  O   LIG d   1      -2.019  91.861 117.415  0.00  0.00    -0.368 OA
BRANCH   7   8
ATOM      8  C   LIG d   1      -0.960  91.302 118.231  0.00  0.00     0.119 C 
BRANCH   8   9
ATOM      9  C   LIG d   1       0.169  90.855 117.283  0.00  0.00     0.028 C 
ATOM     10  C   LIG d   1       1.240  91.943 117.092  0.00  0.00     0.006 C 
ENDBRANCH   8   9
BRANCH   8  11
ATOM     11  C   LIG d   1      -1.420  90.026 118.943  0.00  0.00     0.028 C 
ATOM     12  C   LIG d   1      -1.592  90.219 120.458  0.00  0.00     0.006 C 
ENDBRANCH   8  11
ENDBRANCH   7   8
ENDBRANCH   1   7
BRANCH   6  13
ATOM     13  N   LIG d   1      -5.001  92.264 117.261  0.00  0.00    -0.311 N 
ATOM     14  C   LIG d   1      -5.047  91.138 116.552  0.00  0.00     0.210 C 
ATOM     15  C   LIG d   1      -5.971  91.180 115.330  0.00  0.00     0.109 C 
ATOM     16  O   LIG d   1      -4.435  90.098 116.836  0.00  0.00    -0.276 OA
ATOM     17  H   LIG d   1      -5.555  93.049 116.977  0.00  0.00     0.149 HD
ENDBRANCH   6  13
BRANCH   5  18
ATOM     18  N   LIG d   1      -6.058  92.884 120.060  0.00  0.00     0.381 N 
ATOM     19  H   LIG d   1      -6.403  93.518 120.753  0.00  0.00    -0.090 HD
ATOM     20  H   LIG d   1      -5.887  91.997 120.501  0.00  0.00    -0.090 HD
ATOM     21  H   LIG d   1      -6.730  92.777 119.332  0.00  0.00    -0.090 HD
ENDBRANCH   5  18
BRANCH   3  22
ATOM     22  C   LIG d   1      -1.764  94.726 121.114  0.00  0.00     0.382 C 
ATOM     23  O   LIG d   1      -2.191  95.001 122.261  0.00  0.00    -0.241 OA
ATOM     24  O   LIG d   1      -0.676  95.196 120.734  0.00  0.00    -0.241 OA
ENDBRANCH   3  22
TORSDOF 7
ENDMDL
