MODEL 1
REMARK VINA RESULT:      -5.4      0.000      0.000
REMARK  7 active torsions:
REMARK  status: ('A' for Active; 'I' for Inactive)
REMARK    1  A    between atoms: C_2  and  C_3 
REMARK    2  A    between atoms: C_3  and  O_6 
REMARK    3  A    between atoms: C_3  and  C_4 
REMARK    4  A    between atoms: C_7  and  O_6 
REMARK    5  A    between atoms: C_9  and  C_10 
REMARK    6  A    between atoms: N_15  and  C_14 
REMARK    7  A    between atoms: N_20  and  C_19 
REMARK       I    between atoms: C_22  and  N_20 
ROOT
ATOM      1  C   LIG d   1       1.042  59.027 120.347  0.00  0.00     0.161 C 
ATOM      2  C   LIG d   1       2.337  59.518 120.584  0.00  0.00     0.016 C 
ATOM      3  C   LIG d   1       3.158  60.069 119.574  0.00  0.00     0.038 C 
ATOM      4  C   LIG d   1       2.678  60.308 118.277  0.00  0.00     0.028 C 
ATOM      5  C   LIG d   1       1.550  59.367 117.866  0.00  0.00    -0.047 C 
ATOM      6  C   LIG d   1       0.460  59.381 118.962  0.00  0.00     0.091 C 
ENDROOT
BRANCH   1   7
ATOM      7  O   LIG d   1       0.153  59.470 121.392  0.00  0.00    -0.368 OA
BRANCH   7   8
ATOM      8  C   LIG d   1      -0.320  60.836 121.290  0.00  0.00     0.119 C 
BRANCH   8   9
ATOM      9  C   LIG d   1       0.172  61.591 122.540  0.00  0.00     0.028 C 
ATOM     10  C   LIG d   1      -0.913  62.499 123.142  0.00  0.00     0.006 C 
ENDBRANCH   8   9
BRANCH   8  11
ATOM     11  C   LIG d   1      -1.849  60.902 121.352  0.00  0.00     0.028 C 
ATOM     12  C   LIG d   1      -2.495  59.531 121.606  0.00  0.00     0.006 C 
ENDBRANCH   8  11
ENDBRANCH   7   8
ENDBRANCH   1   7
BRANCH   6  13
ATOM     13  N   LIG d   1      -0.640  58.423 118.679  0.00  0.00    -0.311 N 
ATOM     14  C   LIG d   1      -1.783  58.773 118.091  0.00  0.00     0.210 C 
ATOM     15  C   LIG d   1      -2.793  57.635 117.911  0.00  0.00     0.109 C 
ATOM     16  O   LIG d   1      -2.043  59.911 117.672  0.00  0.00    -0.276 OA
ATOM     17  H   LIG d   1      -0.501  57.472 118.958  0.00  0.00     0.149 HD
ENDBRANCH   6  13
BRANCH   5  18
ATOM     18  N   LIG d   1       1.053  59.815 116.551  0.00  0.00     0.381 N 
ATOM     19  H   LIG d   1       1.625  59.431 115.825  0.00  0.00    -0.090 HD
ATOM     20  H   LIG d   1       1.114  60.816 116.505  0.00  0.00    -0.090 HD
ATOM     21  H   LIG d   1       0.108  59.526 116.428  0.00  0.00    -0.090 HD
ENDBRANCH   5  18
BRANCH   3  22
ATOM     22  C   LIG d   1       4.487  60.352 119.846  0.00  0.00     0.382 C 
ATOM     23  O   LIG d   1       5.039  61.345 119.314  0.00  0.00    -0.241 OA
ATOM     24  O   LIG d   1       5.155  59.601 120.583  0.00  0.00    -0.241 OA
ENDBRANCH   3  22
TORSDOF 7
ENDMDL
MODEL 2
REMARK VINA RESULT:      -5.4     17.917     20.025
REMARK  7 active torsions:
REMARK  status: ('A' for Active; 'I' for Inactive)
REMARK    1  A    between atoms: C_2  and  C_3 
REMARK    2  A    between atoms: C_3  and  O_6 
REMARK    3  A    between atoms: C_3  and  C_4 
REMARK    4  A    between atoms: C_7  and  O_6 
REMARK    5  A    between atoms: C_9  and  C_10 
REMARK    6  A    between atoms: N_15  and  C_14 
REMARK    7  A    between atoms: N_20  and  C_19 
REMARK       I    between atoms: C_22  and  N_20 
ROOT
ATOM      1  C   LIG d   1      -7.021  77.218 117.570  0.00  0.00     0.161 C 
ATOM      2  C   LIG d   1      -8.290  77.761 117.836  0.00  0.00     0.016 C 
ATOM      3  C   LIG d   1      -8.555  79.149 117.850  0.00  0.00     0.038 C 
ATOM      4  C   LIG d   1      -7.596  80.091 117.447  0.00  0.00     0.028 C 
ATOM      5  C   LIG d   1      -6.161  79.623 117.658  0.00  0.00    -0.047 C 
ATOM      6  C   LIG d   1      -5.990  78.225 117.020  0.00  0.00     0.091 C 
ENDROOT
BRANCH   1   7
ATOM      7  O   LIG d   1      -7.148  76.093 116.679  0.00  0.00    -0.368 OA
BRANCH   7   8
ATOM      8  C   LIG d   1      -6.716  74.813 117.202  0.00  0.00     0.119 C 
BRANCH   8   9
ATOM      9  C   LIG d   1      -5.823  74.154 116.133  0.00  0.00     0.028 C 
ATOM     10  C   LIG d   1      -5.669  75.027 114.877  0.00  0.00     0.006 C 
ENDBRANCH   8   9
BRANCH   8  11
ATOM     11  C   LIG d   1      -7.899  73.859 117.388  0.00  0.00     0.028 C 
ATOM     12  C   LIG d   1      -7.601  72.436 116.887  0.00  0.00     0.006 C 
ENDBRANCH   8  11
ENDBRANCH   7   8
ENDBRANCH   1   7
BRANCH   6  13
ATOM     13  N   LIG d   1      -4.637  77.657 117.254  0.00  0.00    -0.311 N 
ATOM     14  C   LIG d   1      -3.627  77.790 116.396  0.00  0.00     0.210 C 
ATOM     15  C   LIG d   1      -2.322  77.110 116.822  0.00  0.00     0.109 C 
ATOM     16  O   LIG d   1      -3.678  78.435 115.338  0.00  0.00    -0.276 OA
ATOM     17  H   LIG d   1      -4.498  77.145 118.103  0.00  0.00     0.149 HD
ENDBRANCH   6  13
BRANCH   5  18
ATOM     18  N   LIG d   1      -5.269  80.640 117.070  0.00  0.00     0.381 N 
ATOM     19  H   LIG d   1      -5.784  81.478 116.890  0.00  0.00    -0.090 HD
ATOM     20  H   LIG d   1      -4.913  80.294 116.197  0.00  0.00    -0.090 HD
ATOM     21  H   LIG d   1      -4.515  80.833 117.692  0.00  0.00    -0.090 HD
ENDBRANCH   5  18
BRANCH   3  22
ATOM     22  C   LIG d   1      -9.780  79.611 118.308  0.00  0.00     0.382 C 
ATOM     23  O   LIG d   1     -10.308  80.618 117.779  0.00  0.00    -0.241 OA
ATOM     24  O   LIG d   1     -10.341  79.059 119.273  0.00  0.00    -0.241 OA
ENDBRANCH   3  22
TORSDOF 7
ENDMDL
MODEL 3
REMARK VINA RESULT:      -5.2     30.821     32.626
REMARK  7 active torsions:
REMARK  status: ('A' for Active; 'I' for Inactive)
REMARK    1  A    between atoms: C_2  and  C_3 
REMARK    2  A    between atoms: C_3  and  O_6 
REMARK    3  A    between atoms: C_3  and  C_4 
REMARK    4  A    between atoms: C_7  and  O_6 
REMARK    5  A    between atoms: C_9  and  C_10 
REMARK    6  A    between atoms: N_15  and  C_14 
REMARK    7  A    between atoms: N_20  and  C_19 
REMARK       I    between atoms: C_22  and  N_20 
ROOT
ATOM      1  C   LIG d   1      -5.403  91.672 118.790  0.00  0.00     0.161 C 
ATOM      2  C   LIG d   1      -4.308  91.757 119.666  0.00  0.00     0.016 C 
ATOM      3  C   LIG d   1      -3.040  91.202 119.381  0.00  0.00     0.038 C 
ATOM      4  C   LIG d   1      -2.735  90.652 118.127  0.00  0.00     0.028 C 
ATOM      5  C   LIG d   1      -3.954  90.094 117.399  0.00  0.00    -0.047 C 
ATOM      6  C   LIG d   1      -5.060  91.173 117.371  0.00  0.00     0.091 C 
ENDROOT
BRANCH   1   7
ATOM      7  O   LIG d   1      -6.076  92.946 118.724  0.00  0.00    -0.368 OA
BRANCH   7   8
ATOM      8  C   LIG d   1      -6.070  93.733 119.940  0.00  0.00     0.119 C 
BRANCH   8   9
ATOM      9  C   LIG d   1      -7.531  93.867 120.413  0.00  0.00     0.028 C 
ATOM     10  C   LIG d   1      -8.351  94.814 119.521  0.00  0.00     0.006 C 
ENDBRANCH   8   9
BRANCH   8  11
ATOM     11  C   LIG d   1      -5.597  95.165 119.674  0.00  0.00     0.028 C 
ATOM     12  C   LIG d   1      -4.117  95.380 120.028  0.00  0.00     0.006 C 
ENDBRANCH   8  11
ENDBRANCH   7   8
ENDBRANCH   1   7
BRANCH   6  13
ATOM     13  N   LIG d   1      -6.317  90.681 116.751  0.00  0.00    -0.311 N 
ATOM     14  C   LIG d   1      -6.617  90.854 115.465  0.00  0.00     0.210 C 
ATOM     15  C   LIG d   1      -7.972  90.285 115.034  0.00  0.00     0.109 C 
ATOM     16  O   LIG d   1      -5.874  91.396 114.632  0.00  0.00    -0.276 OA
ATOM     17  H   LIG d   1      -6.963  90.202 117.347  0.00  0.00     0.149 HD
ENDBRANCH   6  13
BRANCH   5  18
ATOM     18  N   LIG d   1      -3.517  89.679 116.053  0.00  0.00     0.381 N 
ATOM     19  H   LIG d   1      -2.903  88.891 116.124  0.00  0.00    -0.090 HD
ATOM     20  H   LIG d   1      -3.010  90.435 115.628  0.00  0.00    -0.090 HD
ATOM     21  H   LIG d   1      -4.308  89.444 115.495  0.00  0.00    -0.090 HD
ENDBRANCH   5  18
BRANCH   3  22
ATOM     22  C   LIG d   1      -2.071  91.158 120.372  0.00  0.00     0.382 C 
ATOM     23  O   LIG d   1      -1.227  90.229 120.384  0.00  0.00    -0.241 OA
ATOM     24  O   LIG d   1      -2.056  92.011 121.280  0.00  0.00    -0.241 OA
ENDBRANCH   3  22
TORSDOF 7
ENDMDL
MODEL 4
REMARK VINA RESULT:      -5.1     30.055     31.693
REMARK  7 active torsions:
REMARK  status: ('A' for Active; 'I' for Inactive)
REMARK    1  A    between atoms: C_2  and  C_3 
REMARK    2  A    between atoms: C_3  and  O_6 
REMARK    3  A    between atoms: C_3  and  C_4 
REMARK    4  A    between atoms: C_7  and  O_6 
REMARK    5  A    between atoms: C_9  and  C_10 
REMARK    6  A    between atoms: N_15  and  C_14 
REMARK    7  A    between atoms: N_20  and  C_19 
REMARK       I    between atoms: C_22  and  N_20 
ROOT
ATOM      1  C   LIG d   1      -3.375  90.384 118.107  0.00  0.00     0.161 C 
ATOM      2  C   LIG d   1      -3.712  89.808 116.871  0.00  0.00     0.016 C 
ATOM      3  C   LIG d   1      -4.890  90.128 116.158  0.00  0.00     0.038 C 
ATOM      4  C   LIG d   1      -5.743  91.166 116.563  0.00  0.00     0.028 C 
ATOM      5  C   LIG d   1      -5.708  91.427 118.065  0.00  0.00    -0.047 C 
ATOM      6  C   LIG d   1      -4.237  91.599 118.511  0.00  0.00     0.091 C 
ENDROOT
BRANCH   1   7
ATOM      7  O   LIG d   1      -1.978  90.737 118.118  0.00  0.00    -0.368 OA
BRANCH   7   8
ATOM      8  C   LIG d   1      -1.081  89.768 118.715  0.00  0.00     0.119 C 
BRANCH   8   9
ATOM      9  C   LIG d   1      -0.795  90.229 120.158  0.00  0.00     0.028 C 
ATOM     10  C   LIG d   1      -1.561  89.399 121.202  0.00  0.00     0.006 C 
ENDBRANCH   8   9
BRANCH   8  11
ATOM     11  C   LIG d   1       0.281  89.763 118.014  0.00  0.00     0.028 C 
ATOM     12  C   LIG d   1       0.539  91.043 117.204  0.00  0.00     0.006 C 
ENDBRANCH   8  11
ENDBRANCH   7   8
ENDBRANCH   1   7
BRANCH   6  13
ATOM     13  N   LIG d   1      -4.107  91.775 119.981  0.00  0.00    -0.311 N 
ATOM     14  C   LIG d   1      -3.463  92.796 120.543  0.00  0.00     0.210 C 
ATOM     15  C   LIG d   1      -3.431  92.776 122.074  0.00  0.00     0.109 C 
ATOM     16  O   LIG d   1      -2.944  93.734 119.919  0.00  0.00    -0.276 OA
ATOM     17  H   LIG d   1      -4.526  91.076 120.562  0.00  0.00     0.149 HD
ENDBRANCH   6  13
BRANCH   5  18
ATOM     18  N   LIG d   1      -6.535  92.620 118.329  0.00  0.00     0.381 N 
ATOM     19  H   LIG d   1      -6.766  93.070 117.466  0.00  0.00    -0.090 HD
ATOM     20  H   LIG d   1      -6.006  93.264 118.890  0.00  0.00    -0.090 HD
ATOM     21  H   LIG d   1      -7.368  92.357 118.809  0.00  0.00    -0.090 HD
ENDBRANCH   5  18
BRANCH   3  22
ATOM     22  C   LIG d   1      -5.245  89.379 115.047  0.00  0.00     0.382 C 
ATOM     23  O   LIG d   1      -6.395  89.492 114.557  0.00  0.00    -0.241 OA
ATOM     24  O   LIG d   1      -4.446  88.560 114.555  0.00  0.00    -0.241 OA
ENDBRANCH   3  22
TORSDOF 7
ENDMDL
MODEL 5
REMARK VINA RESULT:      -5.0     16.368     17.925
REMARK  7 active torsions:
REMARK  status: ('A' for Active; 'I' for Inactive)
REMARK    1  A    between atoms: C_2  and  C_3 
REMARK    2  A    between atoms: C_3  and  O_6 
REMARK    3  A    between atoms: C_3  and  C_4 
REMARK    4  A    between atoms: C_7  and  O_6 
REMARK    5  A    between atoms: C_9  and  C_10 
REMARK    6  A    between atoms: N_15  and  C_14 
REMARK    7  A    between atoms: N_20  and  C_19 
REMARK       I    between atoms: C_22  and  N_20 
ROOT
ATOM      1  C   LIG d   1      -5.129  76.316 115.670  0.00  0.00     0.161 C 
ATOM      2  C   LIG d   1      -4.099  75.402 115.393  0.00  0.00     0.016 C 
ATOM      3  C   LIG d   1      -2.825  75.456 116.006  0.00  0.00     0.038 C 
ATOM      4  C   LIG d   1      -2.545  76.344 117.055  0.00  0.00     0.028 C 
ATOM      5  C   LIG d   1      -3.388  77.614 117.017  0.00  0.00    -0.047 C 
ATOM      6  C   LIG d   1      -4.879  77.223 116.893  0.00  0.00     0.091 C 
ENDROOT
BRANCH   1   7
ATOM      7  O   LIG d   1      -6.379  75.613 115.814  0.00  0.00    -0.368 OA
BRANCH   7   8
ATOM      8  C   LIG d   1      -6.501  74.762 116.980  0.00  0.00     0.119 C 
BRANCH   8   9
ATOM      9  C   LIG d   1      -6.703  73.318 116.480  0.00  0.00     0.028 C 
ATOM     10  C   LIG d   1      -7.793  72.572 117.268  0.00  0.00     0.006 C 
ENDBRANCH   8   9
BRANCH   8  11
ATOM     11  C   LIG d   1      -7.762  75.093 117.783  0.00  0.00     0.028 C 
ATOM     12  C   LIG d   1      -8.610  76.198 117.133  0.00  0.00     0.006 C 
ENDBRANCH   8  11
ENDBRANCH   7   8
ENDBRANCH   1   7
BRANCH   6  13
ATOM     13  N   LIG d   1      -5.767  78.407 116.764  0.00  0.00    -0.311 N 
ATOM     14  C   LIG d   1      -6.371  78.987 117.800  0.00  0.00     0.210 C 
ATOM     15  C   LIG d   1      -7.259  80.183 117.444  0.00  0.00     0.109 C 
ATOM     16  O   LIG d   1      -6.230  78.643 118.983  0.00  0.00    -0.276 OA
ATOM     17  H   LIG d   1      -5.912  78.771 115.842  0.00  0.00     0.149 HD
ENDBRANCH   6  13
BRANCH   5  18
ATOM     18  N   LIG d   1      -3.092  78.383 118.240  0.00  0.00     0.381 N 
ATOM     19  H   LIG d   1      -3.186  77.792 119.042  0.00  0.00    -0.090 HD
ATOM     20  H   LIG d   1      -3.756  79.133 118.321  0.00  0.00    -0.090 HD
ATOM     21  H   LIG d   1      -2.167  78.751 118.196  0.00  0.00    -0.090 HD
ENDBRANCH   5  18
BRANCH   3  22
ATOM     22  C   LIG d   1      -1.804  74.642 115.540  0.00  0.00     0.382 C 
ATOM     23  O   LIG d   1      -1.094  75.017 114.576  0.00  0.00    -0.241 OA
ATOM     24  O   LIG d   1      -1.612  73.520 116.044  0.00  0.00    -0.241 OA
ENDBRANCH   3  22
TORSDOF 7
ENDMDL
MODEL 6
REMARK VINA RESULT:      -4.8     16.684     18.740
REMARK  7 active torsions:
REMARK  status: ('A' for Active; 'I' for Inactive)
REMARK    1  A    between atoms: C_2  and  C_3 
REMARK    2  A    between atoms: C_3  and  O_6 
REMARK    3  A    between atoms: C_3  and  C_4 
REMARK    4  A    between atoms: C_7  and  O_6 
REMARK    5  A    between atoms: C_9  and  C_10 
REMARK    6  A    between atoms: N_15  and  C_14 
REMARK    7  A    between atoms: N_20  and  C_19 
REMARK       I    between atoms: C_22  and  N_20 
ROOT
ATOM      1  C   LIG d   1      -5.639  76.903 116.553  0.00  0.00     0.161 C 
ATOM      2  C   LIG d   1      -6.963  77.228 116.890  0.00  0.00     0.016 C 
ATOM      3  C   LIG d   1      -7.955  76.261 117.171  0.00  0.00     0.038 C 
ATOM      4  C   LIG d   1      -7.649  74.896 117.281  0.00  0.00     0.028 C 
ATOM      5  C   LIG d   1      -6.438  74.478 116.455  0.00  0.00    -0.047 C 
ATOM      6  C   LIG d   1      -5.259  75.424 116.778  0.00  0.00     0.091 C 
ENDROOT
BRANCH   1   7
ATOM      7  O   LIG d   1      -4.728  77.767 117.261  0.00  0.00    -0.368 OA
BRANCH   7   8
ATOM      8  C   LIG d   1      -4.093  78.805 116.475  0.00  0.00     0.119 C 
BRANCH   8   9
ATOM      9  C   LIG d   1      -2.571  78.583 116.558  0.00  0.00     0.028 C 
ATOM     10  C   LIG d   1      -2.169  77.719 117.765  0.00  0.00     0.006 C 
ENDBRANCH   8   9
BRANCH   8  11
ATOM     11  C   LIG d   1      -4.334  80.190 117.082  0.00  0.00     0.028 C 
ATOM     12  C   LIG d   1      -3.389  81.262 116.515  0.00  0.00     0.006 C 
ENDBRANCH   8  11
ENDBRANCH   7   8
ENDBRANCH   1   7
BRANCH   6  13
ATOM     13  N   LIG d   1      -4.059  75.138 115.950  0.00  0.00    -0.311 N 
ATOM     14  C   LIG d   1      -3.079  74.323 116.337  0.00  0.00     0.210 C 
ATOM     15  C   LIG d   1      -1.923  74.183 115.341  0.00  0.00     0.109 C 
ATOM     16  O   LIG d   1      -3.071  73.679 117.397  0.00  0.00    -0.276 OA
ATOM     17  H   LIG d   1      -3.998  75.594 115.061  0.00  0.00     0.149 HD
ENDBRANCH   6  13
BRANCH   5  18
ATOM     18  N   LIG d   1      -6.149  73.066 116.770  0.00  0.00     0.381 N 
ATOM     19  H   LIG d   1      -5.553  72.677 116.067  0.00  0.00    -0.090 HD
ATOM     20  H   LIG d   1      -7.011  72.551 116.773  0.00  0.00    -0.090 HD
ATOM     21  H   LIG d   1      -5.711  72.999 117.662  0.00  0.00    -0.090 HD
ENDBRANCH   5  18
BRANCH   3  22
ATOM     22  C   LIG d   1      -9.279  76.652 117.304  0.00  0.00     0.382 C 
ATOM     23  O   LIG d   1      -9.553  77.796 117.739  0.00  0.00    -0.241 OA
ATOM     24  O   LIG d   1     -10.202  75.859 117.038  0.00  0.00    -0.241 OA
ENDBRANCH   3  22
TORSDOF 7
ENDMDL
MODEL 7
REMARK VINA RESULT:      -4.8     30.512     32.431
REMARK  7 active torsions:
REMARK  status: ('A' for Active; 'I' for Inactive)
REMARK    1  A    between atoms: C_2  and  C_3 
REMARK    2  A    between atoms: C_3  and  O_6 
REMARK    3  A    between atoms: C_3  and  C_4 
REMARK    4  A    between atoms: C_7  and  O_6 
REMARK    5  A    between atoms: C_9  and  C_10 
REMARK    6  A    between atoms: N_15  and  C_14 
REMARK    7  A    between atoms: N_20  and  C_19 
REMARK       I    between atoms: C_22  and  N_20 
ROOT
ATOM      1  C   LIG d   1      -4.966  91.740 118.420  0.00  0.00     0.161 C 
ATOM      2  C   LIG d   1      -5.974  91.367 117.516  0.00  0.00     0.016 C 
ATOM      3  C   LIG d   1      -5.765  90.470 116.443  0.00  0.00     0.038 C 
ATOM      4  C   LIG d   1      -4.563  89.763 116.291  0.00  0.00     0.028 C 
ATOM      5  C   LIG d   1      -3.357  90.487 116.880  0.00  0.00    -0.047 C 
ATOM      6  C   LIG d   1      -3.678  90.894 118.336  0.00  0.00     0.091 C 
ENDROOT
BRANCH   1   7
ATOM      7  O   LIG d   1      -5.486  91.729 119.764  0.00  0.00    -0.368 OA
BRANCH   7   8
ATOM      8  C   LIG d   1      -6.032  92.982 120.246  0.00  0.00     0.119 C 
BRANCH   8   9
ATOM      9  C   LIG d   1      -4.862  93.976 120.377  0.00  0.00     0.028 C 
ATOM     10  C   LIG d   1      -5.219  95.376 119.849  0.00  0.00     0.006 C 
ENDBRANCH   8   9
BRANCH   8  11
ATOM     11  C   LIG d   1      -6.599  92.834 121.661  0.00  0.00     0.028 C 
ATOM     12  C   LIG d   1      -7.965  93.519 121.829  0.00  0.00     0.006 C 
ENDBRANCH   8  11
ENDBRANCH   7   8
ENDBRANCH   1   7
BRANCH   6  13
ATOM     13  N   LIG d   1      -2.582  91.681 118.959  0.00  0.00    -0.311 N 
ATOM     14  C   LIG d   1      -1.594  91.132 119.664  0.00  0.00     0.210 C 
ATOM     15  C   LIG d   1      -0.578  92.126 120.236  0.00  0.00     0.109 C 
ATOM     16  O   LIG d   1      -1.445  89.914 119.843  0.00  0.00    -0.276 OA
ATOM     17  H   LIG d   1      -2.608  92.675 118.838  0.00  0.00     0.149 HD
ENDBRANCH   6  13
BRANCH   5  18
ATOM     18  N   LIG d   1      -2.198  89.580 116.776  0.00  0.00     0.381 N 
ATOM     19  H   LIG d   1      -1.715  89.545 117.651  0.00  0.00    -0.090 HD
ATOM     20  H   LIG d   1      -1.567  89.938 116.081  0.00  0.00    -0.090 HD
ATOM     21  H   LIG d   1      -2.502  88.666 116.520  0.00  0.00    -0.090 HD
ENDBRANCH   5  18
BRANCH   3  22
ATOM     22  C   LIG d   1      -6.753  90.302 115.485  0.00  0.00     0.382 C 
ATOM     23  O   LIG d   1      -6.591  89.475 114.555  0.00  0.00    -0.241 OA
ATOM     24  O   LIG d   1      -7.785  90.999 115.513  0.00  0.00    -0.241 OA
ENDBRANCH   3  22
TORSDOF 7
ENDMDL
MODEL 8
REMARK VINA RESULT:      -4.8      2.353      4.399
REMARK  7 active torsions:
REMARK  status: ('A' for Active; 'I' for Inactive)
REMARK    1  A    between atoms: C_2  and  C_3 
REMARK    2  A    between atoms: C_3  and  O_6 
REMARK    3  A    between atoms: C_3  and  C_4 
REMARK    4  A    between atoms: C_7  and  O_6 
REMARK    5  A    between atoms: C_9  and  C_10 
REMARK    6  A    between atoms: N_15  and  C_14 
REMARK    7  A    between atoms: N_20  and  C_19 
REMARK       I    between atoms: C_22  and  N_20 
ROOT
ATOM      1  C   LIG d   1      -0.779  60.044 119.886  0.00  0.00     0.161 C 
ATOM      2  C   LIG d   1       0.298  60.073 118.984  0.00  0.00     0.016 C 
ATOM      3  C   LIG d   1       1.648  59.936 119.380  0.00  0.00     0.038 C 
ATOM      4  C   LIG d   1       2.005  59.607 120.696  0.00  0.00     0.028 C 
ATOM      5  C   LIG d   1       0.986  60.067 121.733  0.00  0.00    -0.047 C 
ATOM      6  C   LIG d   1      -0.417  59.575 121.311  0.00  0.00     0.091 C 
ENDROOT
BRANCH   1   7
ATOM      7  O   LIG d   1      -1.844  59.236 119.348  0.00  0.00    -0.368 OA
BRANCH   7   8
ATOM      8  C   LIG d   1      -1.467  58.283 118.324  0.00  0.00     0.119 C 
BRANCH   8   9
ATOM      9  C   LIG d   1      -2.517  58.372 117.200  0.00  0.00     0.028 C 
ATOM     10  C   LIG d   1      -3.559  59.474 117.455  0.00  0.00     0.006 C 
ENDBRANCH   8   9
BRANCH   8  11
ATOM     11  C   LIG d   1      -1.550  56.845 118.844  0.00  0.00     0.028 C 
ATOM     12  C   LIG d   1      -2.464  56.707 120.072  0.00  0.00     0.006 C 
ENDBRANCH   8  11
ENDBRANCH   7   8
ENDBRANCH   1   7
BRANCH   6  13
ATOM     13  N   LIG d   1      -1.485  60.053 122.227  0.00  0.00    -0.311 N 
ATOM     14  C   LIG d   1      -1.975  59.322 123.227  0.00  0.00     0.210 C 
ATOM     15  C   LIG d   1      -3.086  59.997 124.037  0.00  0.00     0.109 C 
ATOM     16  O   LIG d   1      -1.572  58.191 123.539  0.00  0.00    -0.276 OA
ATOM     17  H   LIG d   1      -1.847  60.972 122.064  0.00  0.00     0.149 HD
ENDBRANCH   6  13
BRANCH   5  18
ATOM     18  N   LIG d   1       1.414  59.539 123.043  0.00  0.00     0.381 N 
ATOM     19  H   LIG d   1       1.889  60.253 123.557  0.00  0.00    -0.090 HD
ATOM     20  H   LIG d   1       2.054  58.779 122.894  0.00  0.00    -0.090 HD
ATOM     21  H   LIG d   1       0.622  59.220 123.557  0.00  0.00    -0.090 HD
ENDBRANCH   5  18
BRANCH   3  22
ATOM     22  C   LIG d   1       2.661  60.169 118.462  0.00  0.00     0.382 C 
ATOM     23  O   LIG d   1       3.727  60.719 118.830  0.00  0.00    -0.241 OA
ATOM     24  O   LIG d   1       2.504  59.876 117.261  0.00  0.00    -0.241 OA
ENDBRANCH   3  22
TORSDOF 7
ENDMDL
MODEL 9
REMARK VINA RESULT:      -4.7      2.761      5.059
REMARK  7 active torsions:
REMARK  status: ('A' for Active; 'I' for Inactive)
REMARK    1  A    between atoms: C_2  and  C_3 
REMARK    2  A    between atoms: C_3  and  O_6 
REMARK    3  A    between atoms: C_3  and  C_4 
REMARK    4  A    between atoms: C_7  and  O_6 
REMARK    5  A    between atoms: C_9  and  C_10 
REMARK    6  A    between atoms: N_15  and  C_14 
REMARK    7  A    between atoms: N_20  and  C_19 
REMARK       I    between atoms: C_22  and  N_20 
ROOT
ATOM      1  C   LIG d   1       1.173  58.369 118.103  0.00  0.00     0.161 C 
ATOM      2  C   LIG d   1       0.711  59.554 118.698  0.00  0.00     0.016 C 
ATOM      3  C   LIG d   1      -0.610  59.724 119.171  0.00  0.00     0.038 C 
ATOM      4  C   LIG d   1      -1.523  58.660 119.217  0.00  0.00     0.028 C 
ATOM      5  C   LIG d   1      -1.259  57.588 118.165  0.00  0.00    -0.047 C 
ATOM      6  C   LIG d   1       0.224  57.161 118.246  0.00  0.00     0.091 C 
ENDROOT
BRANCH   1   7
ATOM      7  O   LIG d   1       2.481  58.042 118.615  0.00  0.00    -0.368 OA
BRANCH   7   8
ATOM      8  C   LIG d   1       2.882  58.731 119.825  0.00  0.00     0.119 C 
BRANCH   8   9
ATOM      9  C   LIG d   1       4.179  59.501 119.511  0.00  0.00     0.028 C 
ATOM     10  C   LIG d   1       4.069  60.997 119.848  0.00  0.00     0.006 C 
ENDBRANCH   8   9
BRANCH   8  11
ATOM     11  C   LIG d   1       3.255  57.740 120.931  0.00  0.00     0.028 C 
ATOM     12  C   LIG d   1       4.773  57.526 121.052  0.00  0.00     0.006 C 
ENDBRANCH   8  11
ENDBRANCH   7   8
ENDBRANCH   1   7
BRANCH   6  13
ATOM     13  N   LIG d   1       0.588  56.176 117.194  0.00  0.00    -0.311 N 
ATOM     14  C   LIG d   1       1.214  55.028 117.449  0.00  0.00     0.210 C 
ATOM     15  C   LIG d   1       1.513  54.167 116.218  0.00  0.00     0.109 C 
ATOM     16  O   LIG d   1       1.520  54.626 118.582  0.00  0.00    -0.276 OA
ATOM     17  H   LIG d   1       0.349  56.407 116.250  0.00  0.00     0.149 HD
ENDBRANCH   6  13
BRANCH   5  18
ATOM     18  N   LIG d   1      -2.196  56.477 118.415  0.00  0.00     0.381 N 
ATOM     19  H   LIG d   1      -2.430  56.444 119.387  0.00  0.00    -0.090 HD
ATOM     20  H   LIG d   1      -1.747  55.612 118.169  0.00  0.00    -0.090 HD
ATOM     21  H   LIG d   1      -3.021  56.598 117.870  0.00  0.00    -0.090 HD
ENDBRANCH   5  18
BRANCH   3  22
ATOM     22  C   LIG d   1      -1.043  60.980 119.567  0.00  0.00     0.382 C 
ATOM     23  O   LIG d   1      -1.166  61.245 120.788  0.00  0.00    -0.241 OA
ATOM     24  O   LIG d   1      -1.353  61.838 118.719  0.00  0.00    -0.241 OA
ENDBRANCH   3  22
TORSDOF 7
ENDMDL
