MODEL 1
REMARK VINA RESULT:      -5.9      0.000      0.000
REMARK  7 active torsions:
REMARK  status: ('A' for Active; 'I' for Inactive)
REMARK    1  A    between atoms: C_2  and  C_3 
REMARK    2  A    between atoms: C_3  and  O_6 
REMARK    3  A    between atoms: C_3  and  C_4 
REMARK    4  A    between atoms: C_7  and  O_6 
REMARK    5  A    between atoms: C_9  and  C_10 
REMARK    6  A    between atoms: N_15  and  C_14 
REMARK    7  A    between atoms: N_20  and  C_19 
REMARK       I    between atoms: C_22  and  N_20 
ROOT
ATOM      1  C   LIG d   1     -10.021  73.742 118.346  0.00  0.00     0.161 C 
ATOM      2  C   LIG d   1      -9.585  72.486 117.891  0.00  0.00     0.016 C 
ATOM      3  C   LIG d   1      -8.435  72.306 117.088  0.00  0.00     0.038 C 
ATOM      4  C   LIG d   1      -7.552  73.360 116.809  0.00  0.00     0.028 C 
ATOM      5  C   LIG d   1      -8.221  74.730 116.824  0.00  0.00    -0.047 C 
ATOM      6  C   LIG d   1      -9.009  74.889 118.145  0.00  0.00     0.091 C 
ENDROOT
BRANCH   1   7
ATOM      7  O   LIG d   1     -10.408  73.652 119.731  0.00  0.00    -0.368 OA
BRANCH   7   8
ATOM      8  C   LIG d   1     -11.825  73.492 119.988  0.00  0.00     0.119 C 
BRANCH   8   9
ATOM      9  C   LIG d   1     -12.574  74.492 119.086  0.00  0.00     0.028 C 
ATOM     10  C   LIG d   1     -13.718  75.205 119.826  0.00  0.00     0.006 C 
ENDBRANCH   8   9
BRANCH   8  11
ATOM     11  C   LIG d   1     -12.180  73.894 121.422  0.00  0.00     0.028 C 
ATOM     12  C   LIG d   1     -10.948  74.287 122.253  0.00  0.00     0.006 C 
ENDBRANCH   8  11
ENDBRANCH   7   8
ENDBRANCH   1   7
BRANCH   6  13
ATOM     13  N   LIG d   1      -9.763  76.169 118.204  0.00  0.00    -0.311 N 
ATOM     14  C   LIG d   1      -9.790  76.954 119.280  0.00  0.00     0.210 C 
ATOM     15  C   LIG d   1     -10.644  78.218 119.136  0.00  0.00     0.109 C 
ATOM     16  O   LIG d   1      -9.162  76.741 120.327  0.00  0.00    -0.276 OA
ATOM     17  H   LIG d   1     -10.275  76.435 117.386  0.00  0.00     0.149 HD
ENDBRANCH   6  13
BRANCH   5  18
ATOM     18  N   LIG d   1      -7.163  75.744 116.656  0.00  0.00     0.381 N 
ATOM     19  H   LIG d   1      -6.365  75.331 116.217  0.00  0.00    -0.090 HD
ATOM     20  H   LIG d   1      -6.887  76.079 117.562  0.00  0.00    -0.090 HD
ATOM     21  H   LIG d   1      -7.501  76.501 116.103  0.00  0.00    -0.090 HD
ENDBRANCH   5  18
BRANCH   3  22
ATOM     22  C   LIG d   1      -8.180  71.066 116.521  0.00  0.00     0.382 C 
ATOM     23  O   LIG d   1      -8.865  70.070 116.858  0.00  0.00    -0.241 OA
ATOM     24  O   LIG d   1      -7.246  70.922 115.709  0.00  0.00    -0.241 OA
ENDBRANCH   3  22
TORSDOF 7
ENDMDL
MODEL 2
REMARK VINA RESULT:      -5.7      2.155      4.523
REMARK  7 active torsions:
REMARK  status: ('A' for Active; 'I' for Inactive)
REMARK    1  A    between atoms: C_2  and  C_3 
REMARK    2  A    between atoms: C_3  and  O_6 
REMARK    3  A    between atoms: C_3  and  C_4 
REMARK    4  A    between atoms: C_7  and  O_6 
REMARK    5  A    between atoms: C_9  and  C_10 
REMARK    6  A    between atoms: N_15  and  C_14 
REMARK    7  A    between atoms: N_20  and  C_19 
REMARK       I    between atoms: C_22  and  N_20 
ROOT
ATOM      1  C   LIG d   1      -8.407  74.587 117.311  0.00  0.00     0.161 C 
ATOM      2  C   LIG d   1      -8.311  73.251 116.889  0.00  0.00     0.016 C 
ATOM      3  C   LIG d   1      -9.076  72.201 117.448  0.00  0.00     0.038 C 
ATOM      4  C   LIG d   1     -10.105  72.443 118.369  0.00  0.00     0.028 C 
ATOM      5  C   LIG d   1      -9.894  73.709 119.194  0.00  0.00    -0.047 C 
ATOM      6  C   LIG d   1      -9.603  74.888 118.238  0.00  0.00     0.091 C 
ENDROOT
BRANCH   1   7
ATOM      7  O   LIG d   1      -8.428  75.461 116.166  0.00  0.00    -0.368 OA
BRANCH   7   8
ATOM      8  C   LIG d   1      -7.200  76.179 115.888  0.00  0.00     0.119 C 
BRANCH   8   9
ATOM      9  C   LIG d   1      -6.543  75.515 114.662  0.00  0.00     0.028 C 
ATOM     10  C   LIG d   1      -5.355  74.619 115.047  0.00  0.00     0.006 C 
ENDBRANCH   8   9
BRANCH   8  11
ATOM     11  C   LIG d   1      -6.190  76.016 117.028  0.00  0.00     0.028 C 
ATOM     12  C   LIG d   1      -5.984  77.310 117.831  0.00  0.00     0.006 C 
ENDBRANCH   8  11
ENDBRANCH   7   8
ENDBRANCH   1   7
BRANCH   6  13
ATOM     13  N   LIG d   1      -9.301  76.147 118.967  0.00  0.00    -0.311 N 
ATOM     14  C   LIG d   1     -10.077  77.229 118.914  0.00  0.00     0.210 C 
ATOM     15  C   LIG d   1      -9.573  78.427 119.725  0.00  0.00     0.109 C 
ATOM     16  O   LIG d   1     -11.151  77.299 118.299  0.00  0.00    -0.276 OA
ATOM     17  H   LIG d   1      -8.465  76.167 119.517  0.00  0.00     0.149 HD
ENDBRANCH   6  13
BRANCH   5  18
ATOM     18  N   LIG d   1     -11.103  73.913 120.013  0.00  0.00     0.381 N 
ATOM     19  H   LIG d   1     -11.438  73.032 120.350  0.00  0.00    -0.090 HD
ATOM     20  H   LIG d   1     -11.819  74.324 119.440  0.00  0.00    -0.090 HD
ATOM     21  H   LIG d   1     -10.898  74.514 120.781  0.00  0.00    -0.090 HD
ENDBRANCH   5  18
BRANCH   3  22
ATOM     22  C   LIG d   1      -8.786  70.887 117.113  0.00  0.00     0.382 C 
ATOM     23  O   LIG d   1      -7.939  70.638 116.222  0.00  0.00    -0.241 OA
ATOM     24  O   LIG d   1      -9.394  69.947 117.661  0.00  0.00    -0.241 OA
ENDBRANCH   3  22
TORSDOF 7
ENDMDL
MODEL 3
REMARK VINA RESULT:      -5.6     15.653     18.775
REMARK  7 active torsions:
REMARK  status: ('A' for Active; 'I' for Inactive)
REMARK    1  A    between atoms: C_2  and  C_3 
REMARK    2  A    between atoms: C_3  and  O_6 
REMARK    3  A    between atoms: C_3  and  C_4 
REMARK    4  A    between atoms: C_7  and  O_6 
REMARK    5  A    between atoms: C_9  and  C_10 
REMARK    6  A    between atoms: N_15  and  C_14 
REMARK    7  A    between atoms: N_20  and  C_19 
REMARK       I    between atoms: C_22  and  N_20 
ROOT
ATOM      1  C   LIG d   1      -5.685  92.283 117.519  0.00  0.00     0.161 C 
ATOM      2  C   LIG d   1      -6.666  91.320 117.229  0.00  0.00     0.016 C 
ATOM      3  C   LIG d   1      -6.368  89.967 116.946  0.00  0.00     0.038 C 
ATOM      4  C   LIG d   1      -5.072  89.448 117.084  0.00  0.00     0.028 C 
ATOM      5  C   LIG d   1      -3.978  90.491 116.882  0.00  0.00    -0.047 C 
ATOM      6  C   LIG d   1      -4.276  91.712 117.783  0.00  0.00     0.091 C 
ENDROOT
BRANCH   1   7
ATOM      7  O   LIG d   1      -6.112  93.096 118.630  0.00  0.00    -0.368 OA
BRANCH   7   8
ATOM      8  C   LIG d   1      -6.516  94.450 118.310  0.00  0.00     0.119 C 
BRANCH   8   9
ATOM      9  C   LIG d   1      -5.965  95.371 119.416  0.00  0.00     0.028 C 
ATOM     10  C   LIG d   1      -4.914  94.670 120.294  0.00  0.00     0.006 C 
ENDBRANCH   8   9
BRANCH   8  11
ATOM     11  C   LIG d   1      -8.038  94.607 118.373  0.00  0.00     0.028 C 
ATOM     12  C   LIG d   1      -8.572  94.665 119.813  0.00  0.00     0.006 C 
ENDBRANCH   8  11
ENDBRANCH   7   8
ENDBRANCH   1   7
BRANCH   6  13
ATOM     13  N   LIG d   1      -3.299  92.815 117.585  0.00  0.00    -0.311 N 
ATOM     14  C   LIG d   1      -2.216  92.980 118.342  0.00  0.00     0.210 C 
ATOM     15  C   LIG d   1      -1.353  94.192 117.980  0.00  0.00     0.109 C 
ATOM     16  O   LIG d   1      -1.872  92.219 119.259  0.00  0.00    -0.276 OA
ATOM     17  H   LIG d   1      -3.485  93.461 116.842  0.00  0.00     0.149 HD
ENDBRANCH   6  13
BRANCH   5  18
ATOM     18  N   LIG d   1      -2.686  89.848 117.189  0.00  0.00     0.381 N 
ATOM     19  H   LIG d   1      -2.407  89.267 116.424  0.00  0.00    -0.090 HD
ATOM     20  H   LIG d   1      -2.798  89.267 118.002  0.00  0.00    -0.090 HD
ATOM     21  H   LIG d   1      -1.992  90.541 117.361  0.00  0.00    -0.090 HD
ENDBRANCH   5  18
BRANCH   3  22
ATOM     22  C   LIG d   1      -7.368  89.126 116.482  0.00  0.00     0.382 C 
ATOM     23  O   LIG d   1      -8.003  88.403 117.287  0.00  0.00    -0.241 OA
ATOM     24  O   LIG d   1      -7.613  89.048 115.263  0.00  0.00    -0.241 OA
ENDBRANCH   3  22
TORSDOF 7
ENDMDL
MODEL 4
REMARK VINA RESULT:      -5.4      2.401      5.423
REMARK  7 active torsions:
REMARK  status: ('A' for Active; 'I' for Inactive)
REMARK    1  A    between atoms: C_2  and  C_3 
REMARK    2  A    between atoms: C_3  and  O_6 
REMARK    3  A    between atoms: C_3  and  C_4 
REMARK    4  A    between atoms: C_7  and  O_6 
REMARK    5  A    between atoms: C_9  and  C_10 
REMARK    6  A    between atoms: N_15  and  C_14 
REMARK    7  A    between atoms: N_20  and  C_19 
REMARK       I    between atoms: C_22  and  N_20 
ROOT
ATOM      1  C   LIG d   1     -10.543  76.466 118.104  0.00  0.00     0.161 C 
ATOM      2  C   LIG d   1     -11.614  76.139 118.952  0.00  0.00     0.016 C 
ATOM      3  C   LIG d   1     -12.055  74.814 119.174  0.00  0.00     0.038 C 
ATOM      4  C   LIG d   1     -11.354  73.706 118.676  0.00  0.00     0.028 C 
ATOM      5  C   LIG d   1     -10.568  74.008 117.404  0.00  0.00    -0.047 C 
ATOM      6  C   LIG d   1      -9.696  75.262 117.639  0.00  0.00     0.091 C 
ENDROOT
BRANCH   1   7
ATOM      7  O   LIG d   1      -9.705  77.455 118.733  0.00  0.00    -0.368 OA
BRANCH   7   8
ATOM      8  C   LIG d   1      -9.639  78.745 118.076  0.00  0.00     0.119 C 
BRANCH   8   9
ATOM      9  C   LIG d   1      -8.162  79.187 118.072  0.00  0.00     0.028 C 
ATOM     10  C   LIG d   1      -8.005  80.706 117.893  0.00  0.00     0.006 C 
ENDBRANCH   8   9
BRANCH   8  11
ATOM     11  C   LIG d   1     -10.380  79.818 118.879  0.00  0.00     0.028 C 
ATOM     12  C   LIG d   1     -10.543  79.447 120.362  0.00  0.00     0.006 C 
ENDBRANCH   8  11
ENDBRANCH   7   8
ENDBRANCH   1   7
BRANCH   6  13
ATOM     13  N   LIG d   1      -8.958  75.677 116.417  0.00  0.00    -0.311 N 
ATOM     14  C   LIG d   1      -7.695  75.333 116.171  0.00  0.00     0.210 C 
ATOM     15  C   LIG d   1      -7.118  75.883 114.863  0.00  0.00     0.109 C 
ATOM     16  O   LIG d   1      -7.008  74.598 116.897  0.00  0.00    -0.276 OA
ATOM     17  H   LIG d   1      -9.450  76.249 115.759  0.00  0.00     0.149 HD
ENDBRANCH   6  13
BRANCH   5  18
ATOM     18  N   LIG d   1      -9.777  72.808 117.073  0.00  0.00     0.381 N 
ATOM     19  H   LIG d   1      -9.086  73.036 116.387  0.00  0.00    -0.090 HD
ATOM     20  H   LIG d   1     -10.390  72.112 116.684  0.00  0.00    -0.090 HD
ATOM     21  H   LIG d   1      -9.337  72.452 117.893  0.00  0.00    -0.090 HD
ENDBRANCH   5  18
BRANCH   3  22
ATOM     22  C   LIG d   1     -13.234  74.589 119.869  0.00  0.00     0.382 C 
ATOM     23  O   LIG d   1     -14.238  75.309 119.650  0.00  0.00    -0.241 OA
ATOM     24  O   LIG d   1     -13.292  73.705 120.744  0.00  0.00    -0.241 OA
ENDBRANCH   3  22
TORSDOF 7
ENDMDL
MODEL 5
REMARK VINA RESULT:      -5.4      2.713      6.215
REMARK  7 active torsions:
REMARK  status: ('A' for Active; 'I' for Inactive)
REMARK    1  A    between atoms: C_2  and  C_3 
REMARK    2  A    between atoms: C_3  and  O_6 
REMARK    3  A    between atoms: C_3  and  C_4 
REMARK    4  A    between atoms: C_7  and  O_6 
REMARK    5  A    between atoms: C_9  and  C_10 
REMARK    6  A    between atoms: N_15  and  C_14 
REMARK    7  A    between atoms: N_20  and  C_19 
REMARK       I    between atoms: C_22  and  N_20 
ROOT
ATOM      1  C   LIG d   1      -9.899  76.684 118.477  0.00  0.00     0.161 C 
ATOM      2  C   LIG d   1      -9.654  77.946 117.911  0.00  0.00     0.016 C 
ATOM      3  C   LIG d   1      -9.939  79.164 118.571  0.00  0.00     0.038 C 
ATOM      4  C   LIG d   1     -10.350  79.201 119.912  0.00  0.00     0.028 C 
ATOM      5  C   LIG d   1     -11.090  77.944 120.354  0.00  0.00    -0.047 C 
ATOM      6  C   LIG d   1     -10.244  76.705 119.981  0.00  0.00     0.091 C 
ENDROOT
BRANCH   1   7
ATOM      7  O   LIG d   1      -8.777  75.813 118.232  0.00  0.00    -0.368 OA
BRANCH   7   8
ATOM      8  C   LIG d   1      -8.760  75.140 116.949  0.00  0.00     0.119 C 
BRANCH   8   9
ATOM      9  C   LIG d   1     -10.065  74.329 116.834  0.00  0.00     0.028 C 
ATOM     10  C   LIG d   1      -9.965  72.956 117.520  0.00  0.00     0.006 C 
ENDBRANCH   8   9
BRANCH   8  11
ATOM     11  C   LIG d   1      -7.633  74.107 116.876  0.00  0.00     0.028 C 
ATOM     12  C   LIG d   1      -6.508  74.519 115.914  0.00  0.00     0.006 C 
ENDBRANCH   8  11
ENDBRANCH   7   8
ENDBRANCH   1   7
BRANCH   6  13
ATOM     13  N   LIG d   1     -10.934  75.429 120.302  0.00  0.00    -0.311 N 
ATOM     14  C   LIG d   1     -12.089  75.062 119.752  0.00  0.00     0.210 C 
ATOM     15  C   LIG d   1     -12.638  73.717 120.238  0.00  0.00     0.109 C 
ATOM     16  O   LIG d   1     -12.696  75.707 118.884  0.00  0.00    -0.276 OA
ATOM     17  H   LIG d   1     -10.495  74.830 120.974  0.00  0.00     0.149 HD
ENDBRANCH   6  13
BRANCH   5  18
ATOM     18  N   LIG d   1     -11.339  78.059 121.803  0.00  0.00     0.381 N 
ATOM     19  H   LIG d   1     -12.079  77.441 122.070  0.00  0.00    -0.090 HD
ATOM     20  H   LIG d   1     -11.623  79.000 122.010  0.00  0.00    -0.090 HD
ATOM     21  H   LIG d   1     -10.511  77.835 122.310  0.00  0.00    -0.090 HD
ENDBRANCH   5  18
BRANCH   3  22
ATOM     22  C   LIG d   1      -9.850  80.360 117.875  0.00  0.00     0.382 C 
ATOM     23  O   LIG d   1     -10.893  80.985 117.569  0.00  0.00    -0.241 OA
ATOM     24  O   LIG d   1      -8.742  80.799 117.512  0.00  0.00    -0.241 OA
ENDBRANCH   3  22
TORSDOF 7
ENDMDL
MODEL 6
REMARK VINA RESULT:      -5.3      2.782      4.165
REMARK  7 active torsions:
REMARK  status: ('A' for Active; 'I' for Inactive)
REMARK    1  A    between atoms: C_2  and  C_3 
REMARK    2  A    between atoms: C_3  and  O_6 
REMARK    3  A    between atoms: C_3  and  C_4 
REMARK    4  A    between atoms: C_7  and  O_6 
REMARK    5  A    between atoms: C_9  and  C_10 
REMARK    6  A    between atoms: N_15  and  C_14 
REMARK    7  A    between atoms: N_20  and  C_19 
REMARK       I    between atoms: C_22  and  N_20 
ROOT
ATOM      1  C   LIG d   1      -7.280  75.184 117.011  0.00  0.00     0.161 C 
ATOM      2  C   LIG d   1      -6.134  74.468 116.626  0.00  0.00     0.016 C 
ATOM      3  C   LIG d   1      -4.827  75.003 116.684  0.00  0.00     0.038 C 
ATOM      4  C   LIG d   1      -4.560  76.246 117.278  0.00  0.00     0.028 C 
ATOM      5  C   LIG d   1      -5.739  77.211 117.219  0.00  0.00    -0.047 C 
ATOM      6  C   LIG d   1      -6.998  76.500 117.765  0.00  0.00     0.091 C 
ENDROOT
BRANCH   1   7
ATOM      7  O   LIG d   1      -8.147  74.336 117.790  0.00  0.00    -0.368 OA
BRANCH   7   8
ATOM      8  C   LIG d   1      -8.968  73.405 117.042  0.00  0.00     0.119 C 
BRANCH   8   9
ATOM      9  C   LIG d   1     -10.441  73.756 117.326  0.00  0.00     0.028 C 
ATOM     10  C   LIG d   1     -10.933  73.185 118.667  0.00  0.00     0.006 C 
ENDBRANCH   8   9
BRANCH   8  11
ATOM     11  C   LIG d   1      -8.788  71.971 117.550  0.00  0.00     0.028 C 
ATOM     12  C   LIG d   1      -8.125  71.051 116.512  0.00  0.00     0.006 C 
ENDBRANCH   8  11
ENDBRANCH   7   8
ENDBRANCH   1   7
BRANCH   6  13
ATOM     13  N   LIG d   1      -8.215  77.346 117.665  0.00  0.00    -0.311 N 
ATOM     14  C   LIG d   1      -8.644  78.134 118.650  0.00  0.00     0.210 C 
ATOM     15  C   LIG d   1      -9.931  78.907 118.346  0.00  0.00     0.109 C 
ATOM     16  O   LIG d   1      -8.062  78.291 119.734  0.00  0.00    -0.276 OA
ATOM     17  H   LIG d   1      -8.731  77.304 116.808  0.00  0.00     0.149 HD
ENDBRANCH   6  13
BRANCH   5  18
ATOM     18  N   LIG d   1      -5.371  78.412 117.994  0.00  0.00     0.381 N 
ATOM     19  H   LIG d   1      -4.550  78.829 117.603  0.00  0.00    -0.090 HD
ATOM     20  H   LIG d   1      -5.167  78.139 118.939  0.00  0.00    -0.090 HD
ATOM     21  H   LIG d   1      -6.122  79.067 117.984  0.00  0.00    -0.090 HD
ENDBRANCH   5  18
BRANCH   3  22
ATOM     22  C   LIG d   1      -3.774  74.309 116.108  0.00  0.00     0.382 C 
ATOM     23  O   LIG d   1      -3.479  74.503 114.904  0.00  0.00    -0.241 OA
ATOM     24  O   LIG d   1      -3.143  73.459 116.765  0.00  0.00    -0.241 OA
ENDBRANCH   3  22
TORSDOF 7
ENDMDL
MODEL 7
REMARK VINA RESULT:      -5.2      2.686      5.039
REMARK  7 active torsions:
REMARK  status: ('A' for Active; 'I' for Inactive)
REMARK    1  A    between atoms: C_2  and  C_3 
REMARK    2  A    between atoms: C_3  and  O_6 
REMARK    3  A    between atoms: C_3  and  C_4 
REMARK    4  A    between atoms: C_7  and  O_6 
REMARK    5  A    between atoms: C_9  and  C_10 
REMARK    6  A    between atoms: N_15  and  C_14 
REMARK    7  A    between atoms: N_20  and  C_19 
REMARK       I    between atoms: C_22  and  N_20 
ROOT
ATOM      1  C   LIG d   1      -9.673  77.077 118.214  0.00  0.00     0.161 C 
ATOM      2  C   LIG d   1      -8.679  76.886 117.240  0.00  0.00     0.016 C 
ATOM      3  C   LIG d   1      -8.435  75.644 116.611  0.00  0.00     0.038 C 
ATOM      4  C   LIG d   1      -9.274  74.537 116.805  0.00  0.00     0.028 C 
ATOM      5  C   LIG d   1      -9.980  74.541 118.157  0.00  0.00    -0.047 C 
ATOM      6  C   LIG d   1     -10.671  75.909 118.358  0.00  0.00     0.091 C 
ENDROOT
BRANCH   1   7
ATOM      7  O   LIG d   1     -10.377  78.309 117.959  0.00  0.00    -0.368 OA
BRANCH   7   8
ATOM      8  C   LIG d   1      -9.684  79.527 118.325  0.00  0.00     0.119 C 
BRANCH   8   9
ATOM      9  C   LIG d   1      -9.398  79.459 119.838  0.00  0.00     0.028 C 
ATOM     10  C   LIG d   1      -7.905  79.638 120.161  0.00  0.00     0.006 C 
ENDBRANCH   8   9
BRANCH   8  11
ATOM     11  C   LIG d   1     -10.579  80.756 118.137  0.00  0.00     0.028 C 
ATOM     12  C   LIG d   1      -9.973  81.793 117.179  0.00  0.00     0.006 C 
ENDBRANCH   8  11
ENDBRANCH   7   8
ENDBRANCH   1   7
BRANCH   6  13
ATOM     13  N   LIG d   1     -11.314  76.029 119.692  0.00  0.00    -0.311 N 
ATOM     14  C   LIG d   1     -12.583  75.698 119.927  0.00  0.00     0.210 C 
ATOM     15  C   LIG d   1     -13.053  75.918 121.368  0.00  0.00     0.109 C 
ATOM     16  O   LIG d   1     -13.355  75.214 119.085  0.00  0.00    -0.276 OA
ATOM     17  H   LIG d   1     -10.751  76.384 120.440  0.00  0.00     0.149 HD
ENDBRANCH   6  13
BRANCH   5  18
ATOM     18  N   LIG d   1     -10.924  73.408 118.171  0.00  0.00     0.381 N 
ATOM     19  H   LIG d   1     -11.013  73.053 119.101  0.00  0.00    -0.090 HD
ATOM     20  H   LIG d   1     -10.562  72.676 117.586  0.00  0.00    -0.090 HD
ATOM     21  H   LIG d   1     -11.815  73.702 117.833  0.00  0.00    -0.090 HD
ENDBRANCH   5  18
BRANCH   3  22
ATOM     22  C   LIG d   1      -7.316  75.489 115.806  0.00  0.00     0.382 C 
ATOM     23  O   LIG d   1      -6.517  74.545 116.018  0.00  0.00    -0.241 OA
ATOM     24  O   LIG d   1      -7.073  76.307 114.899  0.00  0.00    -0.241 OA
ENDBRANCH   3  22
TORSDOF 7
ENDMDL
MODEL 8
REMARK VINA RESULT:      -5.0     16.031     18.229
REMARK  7 active torsions:
REMARK  status: ('A' for Active; 'I' for Inactive)
REMARK    1  A    between atoms: C_2  and  C_3 
REMARK    2  A    between atoms: C_3  and  O_6 
REMARK    3  A    between atoms: C_3  and  C_4 
REMARK    4  A    between atoms: C_7  and  O_6 
REMARK    5  A    between atoms: C_9  and  C_10 
REMARK    6  A    between atoms: N_15  and  C_14 
REMARK    7  A    between atoms: N_20  and  C_19 
REMARK       I    between atoms: C_22  and  N_20 
ROOT
ATOM      1  C   LIG d   1      -4.304  90.580 117.766  0.00  0.00     0.161 C 
ATOM      2  C   LIG d   1      -5.311  90.022 116.962  0.00  0.00     0.016 C 
ATOM      3  C   LIG d   1      -6.434  90.749 116.505  0.00  0.00     0.038 C 
ATOM      4  C   LIG d   1      -6.549  92.134 116.697  0.00  0.00     0.028 C 
ATOM      5  C   LIG d   1      -5.810  92.637 117.933  0.00  0.00    -0.047 C 
ATOM      6  C   LIG d   1      -4.355  92.117 117.894  0.00  0.00     0.091 C 
ENDROOT
BRANCH   1   7
ATOM      7  O   LIG d   1      -3.010  90.160 117.290  0.00  0.00    -0.368 OA
BRANCH   7   8
ATOM      8  C   LIG d   1      -2.175  89.461 118.247  0.00  0.00     0.119 C 
BRANCH   8   9
ATOM      9  C   LIG d   1      -0.786  89.281 117.604  0.00  0.00     0.028 C 
ATOM     10  C   LIG d   1      -0.422  87.802 117.397  0.00  0.00     0.006 C 
ENDBRANCH   8   9
BRANCH   8  11
ATOM     11  C   LIG d   1      -2.689  88.042 118.504  0.00  0.00     0.028 C 
ATOM     12  C   LIG d   1      -3.104  87.815 119.967  0.00  0.00     0.006 C 
ENDBRANCH   8  11
ENDBRANCH   7   8
ENDBRANCH   1   7
BRANCH   6  13
ATOM     13  N   LIG d   1      -3.585  92.493 119.108  0.00  0.00    -0.311 N 
ATOM     14  C   LIG d   1      -2.429  93.153 119.068  0.00  0.00     0.210 C 
ATOM     15  C   LIG d   1      -1.791  93.423 120.435  0.00  0.00     0.109 C 
ATOM     16  O   LIG d   1      -1.887  93.567 118.033  0.00  0.00    -0.276 OA
ATOM     17  H   LIG d   1      -3.969  92.223 119.993  0.00  0.00     0.149 HD
ENDBRANCH   6  13
BRANCH   5  18
ATOM     18  N   LIG d   1      -5.897  94.110 117.935  0.00  0.00     0.381 N 
ATOM     19  H   LIG d   1      -6.857  94.392 117.959  0.00  0.00    -0.090 HD
ATOM     20  H   LIG d   1      -5.486  94.462 117.089  0.00  0.00    -0.090 HD
ATOM     21  H   LIG d   1      -5.416  94.479 118.726  0.00  0.00    -0.090 HD
ENDBRANCH   5  18
BRANCH   3  22
ATOM     22  C   LIG d   1      -7.477  90.082 115.881  0.00  0.00     0.382 C 
ATOM     23  O   LIG d   1      -7.677  88.867 116.120  0.00  0.00    -0.241 OA
ATOM     24  O   LIG d   1      -8.194  90.669 115.048  0.00  0.00    -0.241 OA
ENDBRANCH   3  22
TORSDOF 7
ENDMDL
MODEL 9
REMARK VINA RESULT:      -5.0     15.450     18.711
REMARK  7 active torsions:
REMARK  status: ('A' for Active; 'I' for Inactive)
REMARK    1  A    between atoms: C_2  and  C_3 
REMARK    2  A    between atoms: C_3  and  O_6 
REMARK    3  A    between atoms: C_3  and  C_4 
REMARK    4  A    between atoms: C_7  and  O_6 
REMARK    5  A    between atoms: C_9  and  C_10 
REMARK    6  A    between atoms: N_15  and  C_14 
REMARK    7  A    between atoms: N_20  and  C_19 
REMARK       I    between atoms: C_22  and  N_20 
ROOT
ATOM      1  C   LIG d   1      -6.246  91.445 119.335  0.00  0.00     0.161 C 
ATOM      2  C   LIG d   1      -5.126  92.123 119.846  0.00  0.00     0.016 C 
ATOM      3  C   LIG d   1      -3.861  92.124 119.214  0.00  0.00     0.038 C 
ATOM      4  C   LIG d   1      -3.669  91.567 117.941  0.00  0.00     0.028 C 
ATOM      5  C   LIG d   1      -4.642  90.438 117.620  0.00  0.00    -0.047 C 
ATOM      6  C   LIG d   1      -6.083  90.926 117.891  0.00  0.00     0.091 C 
ENDROOT
BRANCH   1   7
ATOM      7  O   LIG d   1      -7.413  92.284 119.438  0.00  0.00    -0.368 OA
BRANCH   7   8
ATOM      8  C   LIG d   1      -7.225  93.562 120.095  0.00  0.00     0.119 C 
BRANCH   8   9
ATOM      9  C   LIG d   1      -8.489  93.844 120.930  0.00  0.00     0.028 C 
ATOM     10  C   LIG d   1      -8.976  92.602 121.695  0.00  0.00     0.006 C 
ENDBRANCH   8   9
BRANCH   8  11
ATOM     11  C   LIG d   1      -7.146  94.705 119.079  0.00  0.00     0.028 C 
ATOM     12  C   LIG d   1      -5.941  95.629 119.314  0.00  0.00     0.006 C 
ENDBRANCH   8  11
ENDBRANCH   7   8
ENDBRANCH   1   7
BRANCH   6  13
ATOM     13  N   LIG d   1      -7.093  89.855 117.683  0.00  0.00    -0.311 N 
ATOM     14  C   LIG d   1      -7.703  89.640 116.518  0.00  0.00     0.210 C 
ATOM     15  C   LIG d   1      -8.724  88.498 116.525  0.00  0.00     0.109 C 
ATOM     16  O   LIG d   1      -7.472  90.265 115.473  0.00  0.00    -0.276 OA
ATOM     17  H   LIG d   1      -7.317  89.280 118.471  0.00  0.00     0.149 HD
ENDBRANCH   6  13
BRANCH   5  18
ATOM     18  N   LIG d   1      -4.420  90.045 116.216  0.00  0.00     0.381 N 
ATOM     19  H   LIG d   1      -3.438  89.974 116.035  0.00  0.00    -0.090 HD
ATOM     20  H   LIG d   1      -4.801  90.754 115.615  0.00  0.00    -0.090 HD
ATOM     21  H   LIG d   1      -4.863  89.171 116.032  0.00  0.00    -0.090 HD
ENDBRANCH   5  18
BRANCH   3  22
ATOM     22  C   LIG d   1      -2.763  92.651 119.876  0.00  0.00     0.382 C 
ATOM     23  O   LIG d   1      -1.892  91.885 120.355  0.00  0.00    -0.241 OA
ATOM     24  O   LIG d   1      -2.654  93.881 120.039  0.00  0.00    -0.241 OA
ENDBRANCH   3  22
TORSDOF 7
ENDMDL
