MODEL 1
REMARK VINA RESULT:      -5.7      0.000      0.000
REMARK  7 active torsions:
REMARK  status: ('A' for Active; 'I' for Inactive)
REMARK    1  A    between atoms: C_2  and  C_3 
REMARK    2  A    between atoms: C_3  and  O_6 
REMARK    3  A    between atoms: C_3  and  C_4 
REMARK    4  A    between atoms: C_7  and  O_6 
REMARK    5  A    between atoms: C_9  and  C_10 
REMARK    6  A    between atoms: N_15  and  C_14 
REMARK    7  A    between atoms: N_20  and  C_19 
REMARK       I    between atoms: C_22  and  N_20 
ROOT
ATOM      1  C   LIG d   1      -6.195  75.941 116.486  0.00  0.00     0.161 C 
ATOM      2  C   LIG d   1      -5.124  75.089 116.170  0.00  0.00     0.016 C 
ATOM      3  C   LIG d   1      -3.770  75.423 116.401  0.00  0.00     0.038 C 
ATOM      4  C   LIG d   1      -3.401  76.577 117.108  0.00  0.00     0.028 C 
ATOM      5  C   LIG d   1      -4.420  77.706 116.999  0.00  0.00    -0.047 C 
ATOM      6  C   LIG d   1      -5.819  77.156 117.360  0.00  0.00     0.091 C 
ENDROOT
BRANCH   1   7
ATOM      7  O   LIG d   1      -7.253  75.185 117.109  0.00  0.00    -0.368 OA
BRANCH   7   8
ATOM      8  C   LIG d   1      -8.291  74.693 116.224  0.00  0.00     0.119 C 
BRANCH   8   9
ATOM      9  C   LIG d   1      -9.496  75.645 116.350  0.00  0.00     0.028 C 
ATOM     10  C   LIG d   1      -9.728  76.110 117.798  0.00  0.00     0.006 C 
ENDBRANCH   8   9
BRANCH   8  11
ATOM     11  C   LIG d   1      -8.806  73.324 116.677  0.00  0.00     0.028 C 
ATOM     12  C   LIG d   1      -7.825  72.184 116.361  0.00  0.00     0.006 C 
ENDBRANCH   8  11
ENDBRANCH   7   8
ENDBRANCH   1   7
BRANCH   6  13
ATOM     13  N   LIG d   1      -6.888  78.175 117.196  0.00  0.00    -0.311 N 
ATOM     14  C   LIG d   1      -7.298  78.972 118.182  0.00  0.00     0.210 C 
ATOM     15  C   LIG d   1      -8.426  79.938 117.806  0.00  0.00     0.109 C 
ATOM     16  O   LIG d   1      -6.813  78.992 119.323  0.00  0.00    -0.276 OA
ATOM     17  H   LIG d   1      -7.315  78.248 116.294  0.00  0.00     0.149 HD
ENDBRANCH   6  13
BRANCH   5  18
ATOM     18  N   LIG d   1      -3.978  78.793 117.892  0.00  0.00     0.381 N 
ATOM     19  H   LIG d   1      -3.096  79.148 117.583  0.00  0.00    -0.090 HD
ATOM     20  H   LIG d   1      -3.863  78.425 118.820  0.00  0.00    -0.090 HD
ATOM     21  H   LIG d   1      -4.655  79.525 117.899  0.00  0.00    -0.090 HD
ENDBRANCH   5  18
BRANCH   3  22
ATOM     22  C   LIG d   1      -2.766  74.616 115.887  0.00  0.00     0.382 C 
ATOM     23  O   LIG d   1      -2.002  73.994 116.664  0.00  0.00    -0.241 OA
ATOM     24  O   LIG d   1      -2.586  74.538 114.657  0.00  0.00    -0.241 OA
ENDBRANCH   3  22
TORSDOF 7
ENDMDL
MODEL 2
REMARK VINA RESULT:      -5.6      2.071      5.217
REMARK  7 active torsions:
REMARK  status: ('A' for Active; 'I' for Inactive)
REMARK    1  A    between atoms: C_2  and  C_3 
REMARK    2  A    between atoms: C_3  and  O_6 
REMARK    3  A    between atoms: C_3  and  C_4 
REMARK    4  A    between atoms: C_7  and  O_6 
REMARK    5  A    between atoms: C_9  and  C_10 
REMARK    6  A    between atoms: N_15  and  C_14 
REMARK    7  A    between atoms: N_20  and  C_19 
REMARK       I    between atoms: C_22  and  N_20 
ROOT
ATOM      1  C   LIG d   1      -7.611  76.778 117.611  0.00  0.00     0.161 C 
ATOM      2  C   LIG d   1      -8.844  77.398 117.873  0.00  0.00     0.016 C 
ATOM      3  C   LIG d   1      -8.994  78.796 118.028  0.00  0.00     0.038 C 
ATOM      4  C   LIG d   1      -7.940  79.687 117.780  0.00  0.00     0.028 C 
ATOM      5  C   LIG d   1      -6.562  79.074 118.007  0.00  0.00    -0.047 C 
ATOM      6  C   LIG d   1      -6.470  77.744 117.226  0.00  0.00     0.091 C 
ENDROOT
BRANCH   1   7
ATOM      7  O   LIG d   1      -7.777  75.770 116.594  0.00  0.00    -0.368 OA
BRANCH   7   8
ATOM      8  C   LIG d   1      -7.882  74.403 117.063  0.00  0.00     0.119 C 
BRANCH   8   9
ATOM      9  C   LIG d   1      -6.749  73.598 116.399  0.00  0.00     0.028 C 
ATOM     10  C   LIG d   1      -6.068  74.373 115.259  0.00  0.00     0.006 C 
ENDBRANCH   8   9
BRANCH   8  11
ATOM     11  C   LIG d   1      -9.181  73.747 116.583  0.00  0.00     0.028 C 
ATOM     12  C   LIG d   1      -9.185  72.223 116.776  0.00  0.00     0.006 C 
ENDBRANCH   8  11
ENDBRANCH   7   8
ENDBRANCH   1   7
BRANCH   6  13
ATOM     13  N   LIG d   1      -5.184  77.037 117.461  0.00  0.00    -0.311 N 
ATOM     14  C   LIG d   1      -4.119  77.170 116.672  0.00  0.00     0.210 C 
ATOM     15  C   LIG d   1      -2.902  76.336 117.083  0.00  0.00     0.109 C 
ATOM     16  O   LIG d   1      -4.057  77.924 115.690  0.00  0.00    -0.276 OA
ATOM     17  H   LIG d   1      -5.137  76.428 118.255  0.00  0.00     0.149 HD
ENDBRANCH   6  13
BRANCH   5  18
ATOM     18  N   LIG d   1      -5.558  80.066 117.580  0.00  0.00     0.381 N 
ATOM     19  H   LIG d   1      -5.855  80.985 117.843  0.00  0.00    -0.090 HD
ATOM     20  H   LIG d   1      -5.476  80.036 116.579  0.00  0.00    -0.090 HD
ATOM     21  H   LIG d   1      -4.677  79.862 117.999  0.00  0.00    -0.090 HD
ENDBRANCH   5  18
BRANCH   3  22
ATOM     22  C   LIG d   1     -10.202  79.311 118.475  0.00  0.00     0.382 C 
ATOM     23  O   LIG d   1     -10.602  80.423 118.055  0.00  0.00    -0.241 OA
ATOM     24  O   LIG d   1     -10.873  78.698 119.327  0.00  0.00    -0.241 OA
ENDBRANCH   3  22
TORSDOF 7
ENDMDL
MODEL 3
REMARK VINA RESULT:      -5.3     14.490     17.639
REMARK  7 active torsions:
REMARK  status: ('A' for Active; 'I' for Inactive)
REMARK    1  A    between atoms: C_2  and  C_3 
REMARK    2  A    between atoms: C_3  and  O_6 
REMARK    3  A    between atoms: C_3  and  C_4 
REMARK    4  A    between atoms: C_7  and  O_6 
REMARK    5  A    between atoms: C_9  and  C_10 
REMARK    6  A    between atoms: N_15  and  C_14 
REMARK    7  A    between atoms: N_20  and  C_19 
REMARK       I    between atoms: C_22  and  N_20 
ROOT
ATOM      1  C   LIG d   1      -6.515  93.340 117.647  0.00  0.00     0.161 C 
ATOM      2  C   LIG d   1      -7.164  92.336 116.909  0.00  0.00     0.016 C 
ATOM      3  C   LIG d   1      -6.615  91.052 116.691  0.00  0.00     0.038 C 
ATOM      4  C   LIG d   1      -5.438  90.631 117.328  0.00  0.00     0.028 C 
ATOM      5  C   LIG d   1      -4.493  91.778 117.674  0.00  0.00    -0.047 C 
ATOM      6  C   LIG d   1      -5.282  92.863 118.442  0.00  0.00     0.091 C 
ENDROOT
BRANCH   1   7
ATOM      7  O   LIG d   1      -7.457  93.988 118.525  0.00  0.00    -0.368 OA
BRANCH   7   8
ATOM      8  C   LIG d   1      -7.735  95.382 118.244  0.00  0.00     0.119 C 
BRANCH   8   9
ATOM      9  C   LIG d   1      -7.100  96.217 119.373  0.00  0.00     0.028 C 
ATOM     10  C   LIG d   1      -6.191  97.335 118.837  0.00  0.00     0.006 C 
ENDBRANCH   8   9
BRANCH   8  11
ATOM     11  C   LIG d   1      -9.236  95.677 118.316  0.00  0.00     0.028 C 
ATOM     12  C   LIG d   1      -9.797  95.567 119.742  0.00  0.00     0.006 C 
ENDBRANCH   8  11
ENDBRANCH   7   8
ENDBRANCH   1   7
BRANCH   6  13
ATOM     13  N   LIG d   1      -4.452  94.058 118.745  0.00  0.00    -0.311 N 
ATOM     14  C   LIG d   1      -3.813  94.234 119.900  0.00  0.00     0.210 C 
ATOM     15  C   LIG d   1      -3.030  95.545 120.014  0.00  0.00     0.109 C 
ATOM     16  O   LIG d   1      -3.794  93.413 120.830  0.00  0.00    -0.276 OA
ATOM     17  H   LIG d   1      -4.387  94.760 118.034  0.00  0.00     0.149 HD
ENDBRANCH   6  13
BRANCH   5  18
ATOM     18  N   LIG d   1      -3.375  91.214 118.454  0.00  0.00     0.381 N 
ATOM     19  H   LIG d   1      -2.505  91.522 118.069  0.00  0.00    -0.090 HD
ATOM     20  H   LIG d   1      -3.410  90.212 118.394  0.00  0.00    -0.090 HD
ATOM     21  H   LIG d   1      -3.445  91.500 119.406  0.00  0.00    -0.090 HD
ENDBRANCH   5  18
BRANCH   3  22
ATOM     22  C   LIG d   1      -7.225  90.186 115.796  0.00  0.00     0.382 C 
ATOM     23  O   LIG d   1      -8.318  89.647 116.092  0.00  0.00    -0.241 OA
ATOM     24  O   LIG d   1      -6.673  89.904 114.715  0.00  0.00    -0.241 OA
ENDBRANCH   3  22
TORSDOF 7
ENDMDL
MODEL 4
REMARK VINA RESULT:      -5.3      2.357      5.347
REMARK  7 active torsions:
REMARK  status: ('A' for Active; 'I' for Inactive)
REMARK    1  A    between atoms: C_2  and  C_3 
REMARK    2  A    between atoms: C_3  and  O_6 
REMARK    3  A    between atoms: C_3  and  C_4 
REMARK    4  A    between atoms: C_7  and  O_6 
REMARK    5  A    between atoms: C_9  and  C_10 
REMARK    6  A    between atoms: N_15  and  C_14 
REMARK    7  A    between atoms: N_20  and  C_19 
REMARK       I    between atoms: C_22  and  N_20 
ROOT
ATOM      1  C   LIG d   1      -8.086  76.125 117.385  0.00  0.00     0.161 C 
ATOM      2  C   LIG d   1      -9.443  76.262 117.721  0.00  0.00     0.016 C 
ATOM      3  C   LIG d   1      -9.946  77.316 118.518  0.00  0.00     0.038 C 
ATOM      4  C   LIG d   1      -9.142  78.396 118.911  0.00  0.00     0.028 C 
ATOM      5  C   LIG d   1      -7.662  78.042 119.021  0.00  0.00    -0.047 C 
ATOM      6  C   LIG d   1      -7.212  77.354 117.712  0.00  0.00     0.091 C 
ENDROOT
BRANCH   1   7
ATOM      7  O   LIG d   1      -7.960  75.776 115.993  0.00  0.00    -0.368 OA
BRANCH   7   8
ATOM      8  C   LIG d   1      -7.574  74.408 115.711  0.00  0.00     0.119 C 
BRANCH   8   9
ATOM      9  C   LIG d   1      -7.987  73.552 116.923  0.00  0.00     0.028 C 
ATOM     10  C   LIG d   1      -9.157  72.607 116.603  0.00  0.00     0.006 C 
ENDBRANCH   8   9
BRANCH   8  11
ATOM     11  C   LIG d   1      -6.052  74.267 115.614  0.00  0.00     0.028 C 
ATOM     12  C   LIG d   1      -5.434  75.195 114.556  0.00  0.00     0.006 C 
ENDBRANCH   8  11
ENDBRANCH   7   8
ENDBRANCH   1   7
BRANCH   6  13
ATOM     13  N   LIG d   1      -5.799  76.899 117.768  0.00  0.00    -0.311 N 
ATOM     14  C   LIG d   1      -4.781  77.606 117.279  0.00  0.00     0.210 C 
ATOM     15  C   LIG d   1      -3.407  76.945 117.422  0.00  0.00     0.109 C 
ATOM     16  O   LIG d   1      -4.882  78.732 116.769  0.00  0.00    -0.276 OA
ATOM     17  H   LIG d   1      -5.622  76.010 118.193  0.00  0.00     0.149 HD
ENDBRANCH   6  13
BRANCH   5  18
ATOM     18  N   LIG d   1      -6.925  79.289 119.302  0.00  0.00     0.381 N 
ATOM     19  H   LIG d   1      -6.025  79.072 119.681  0.00  0.00    -0.090 HD
ATOM     20  H   LIG d   1      -7.435  79.821 119.985  0.00  0.00    -0.090 HD
ATOM     21  H   LIG d   1      -6.822  79.820 118.466  0.00  0.00    -0.090 HD
ENDBRANCH   5  18
BRANCH   3  22
ATOM     22  C   LIG d   1     -11.258  77.275 118.964  0.00  0.00     0.382 C 
ATOM     23  O   LIG d   1     -12.197  77.159 118.140  0.00  0.00    -0.241 OA
ATOM     24  O   LIG d   1     -11.517  77.398 120.176  0.00  0.00    -0.241 OA
ENDBRANCH   3  22
TORSDOF 7
ENDMDL
MODEL 5
REMARK VINA RESULT:      -5.3      1.938      4.898
REMARK  7 active torsions:
REMARK  status: ('A' for Active; 'I' for Inactive)
REMARK    1  A    between atoms: C_2  and  C_3 
REMARK    2  A    between atoms: C_3  and  O_6 
REMARK    3  A    between atoms: C_3  and  C_4 
REMARK    4  A    between atoms: C_7  and  O_6 
REMARK    5  A    between atoms: C_9  and  C_10 
REMARK    6  A    between atoms: N_15  and  C_14 
REMARK    7  A    between atoms: N_20  and  C_19 
REMARK       I    between atoms: C_22  and  N_20 
ROOT
ATOM      1  C   LIG d   1      -6.018  75.645 116.317  0.00  0.00     0.161 C 
ATOM      2  C   LIG d   1      -6.593  74.399 116.016  0.00  0.00     0.016 C 
ATOM      3  C   LIG d   1      -7.894  74.023 116.422  0.00  0.00     0.038 C 
ATOM      4  C   LIG d   1      -8.771  74.932 117.033  0.00  0.00     0.028 C 
ATOM      5  C   LIG d   1      -8.059  76.037 117.805  0.00  0.00    -0.047 C 
ATOM      6  C   LIG d   1      -7.002  76.690 116.885  0.00  0.00     0.091 C 
ENDROOT
BRANCH   1   7
ATOM      7  O   LIG d   1      -5.349  76.169 115.152  0.00  0.00    -0.368 OA
BRANCH   7   8
ATOM      8  C   LIG d   1      -3.916  75.964 115.095  0.00  0.00     0.119 C 
BRANCH   8   9
ATOM      9  C   LIG d   1      -3.428  75.703 116.534  0.00  0.00     0.028 C 
ATOM     10  C   LIG d   1      -2.399  74.562 116.607  0.00  0.00     0.006 C 
ENDBRANCH   8   9
BRANCH   8  11
ATOM     11  C   LIG d   1      -3.189  77.235 114.645  0.00  0.00     0.028 C 
ATOM     12  C   LIG d   1      -3.068  78.281 115.765  0.00  0.00     0.006 C 
ENDBRANCH   8  11
ENDBRANCH   7   8
ENDBRANCH   1   7
BRANCH   6  13
ATOM     13  N   LIG d   1      -6.200  77.726 117.588  0.00  0.00    -0.311 N 
ATOM     14  C   LIG d   1      -6.548  79.010 117.642  0.00  0.00     0.210 C 
ATOM     15  C   LIG d   1      -5.571  79.913 118.401  0.00  0.00     0.109 C 
ATOM     16  O   LIG d   1      -7.589  79.482 117.161  0.00  0.00    -0.276 OA
ATOM     17  H   LIG d   1      -5.355  77.424 118.033  0.00  0.00     0.149 HD
ENDBRANCH   6  13
BRANCH   5  18
ATOM     18  N   LIG d   1      -9.085  76.988 118.272  0.00  0.00     0.381 N 
ATOM     19  H   LIG d   1      -9.110  76.996 119.272  0.00  0.00    -0.090 HD
ATOM     20  H   LIG d   1      -9.983  76.687 117.937  0.00  0.00    -0.090 HD
ATOM     21  H   LIG d   1      -8.884  77.902 117.930  0.00  0.00    -0.090 HD
ENDBRANCH   5  18
BRANCH   3  22
ATOM     22  C   LIG d   1      -8.314  72.713 116.255  0.00  0.00     0.382 C 
ATOM     23  O   LIG d   1      -9.520  72.414 116.430  0.00  0.00    -0.241 OA
ATOM     24  O   LIG d   1      -7.495  71.817 115.975  0.00  0.00    -0.241 OA
ENDBRANCH   3  22
TORSDOF 7
ENDMDL
MODEL 6
REMARK VINA RESULT:      -5.2     14.483     16.861
REMARK  7 active torsions:
REMARK  status: ('A' for Active; 'I' for Inactive)
REMARK    1  A    between atoms: C_2  and  C_3 
REMARK    2  A    between atoms: C_3  and  O_6 
REMARK    3  A    between atoms: C_3  and  C_4 
REMARK    4  A    between atoms: C_7  and  O_6 
REMARK    5  A    between atoms: C_9  and  C_10 
REMARK    6  A    between atoms: N_15  and  C_14 
REMARK    7  A    between atoms: N_20  and  C_19 
REMARK       I    between atoms: C_22  and  N_20 
ROOT
ATOM      1  C   LIG d   1      -5.081  91.519 118.696  0.00  0.00     0.161 C 
ATOM      2  C   LIG d   1      -5.035  90.707 117.550  0.00  0.00     0.016 C 
ATOM      3  C   LIG d   1      -5.795  90.961 116.386  0.00  0.00     0.038 C 
ATOM      4  C   LIG d   1      -6.544  92.137 116.230  0.00  0.00     0.028 C 
ATOM      5  C   LIG d   1      -7.017  92.733 117.552  0.00  0.00    -0.047 C 
ATOM      6  C   LIG d   1      -5.807  92.867 118.504  0.00  0.00     0.091 C 
ENDROOT
BRANCH   1   7
ATOM      7  O   LIG d   1      -3.746  91.735 119.195  0.00  0.00    -0.368 OA
BRANCH   7   8
ATOM      8  C   LIG d   1      -2.702  91.844 118.197  0.00  0.00     0.119 C 
BRANCH   8   9
ATOM      9  C   LIG d   1      -1.483  91.057 118.715  0.00  0.00     0.028 C 
ATOM     10  C   LIG d   1      -0.250  91.222 117.809  0.00  0.00     0.006 C 
ENDBRANCH   8   9
BRANCH   8  11
ATOM     11  C   LIG d   1      -2.219  93.290 118.051  0.00  0.00     0.028 C 
ATOM     12  C   LIG d   1      -2.407  94.114 119.335  0.00  0.00     0.006 C 
ENDBRANCH   8  11
ENDBRANCH   7   8
ENDBRANCH   1   7
BRANCH   6  13
ATOM     13  N   LIG d   1      -6.196  93.364 119.850  0.00  0.00    -0.311 N 
ATOM     14  C   LIG d   1      -6.153  94.649 120.198  0.00  0.00     0.210 C 
ATOM     15  C   LIG d   1      -6.578  94.942 121.640  0.00  0.00     0.109 C 
ATOM     16  O   LIG d   1      -5.833  95.576 119.440  0.00  0.00    -0.276 OA
ATOM     17  H   LIG d   1      -6.498  92.682 120.518  0.00  0.00     0.149 HD
ENDBRANCH   6  13
BRANCH   5  18
ATOM     18  N   LIG d   1      -7.664  94.024 117.253  0.00  0.00     0.381 N 
ATOM     19  H   LIG d   1      -7.154  94.500 116.536  0.00  0.00    -0.090 HD
ATOM     20  H   LIG d   1      -7.651  94.594 118.080  0.00  0.00    -0.090 HD
ATOM     21  H   LIG d   1      -8.604  93.875 116.958  0.00  0.00    -0.090 HD
ENDBRANCH   5  18
BRANCH   3  22
ATOM     22  C   LIG d   1      -5.843  90.012 115.376  0.00  0.00     0.382 C 
ATOM     23  O   LIG d   1      -6.882  89.883 114.685  0.00  0.00    -0.241 OA
ATOM     24  O   LIG d   1      -4.875  89.253 115.176  0.00  0.00    -0.241 OA
ENDBRANCH   3  22
TORSDOF 7
ENDMDL
MODEL 7
REMARK VINA RESULT:      -5.2     14.995     18.289
REMARK  7 active torsions:
REMARK  status: ('A' for Active; 'I' for Inactive)
REMARK    1  A    between atoms: C_2  and  C_3 
REMARK    2  A    between atoms: C_3  and  O_6 
REMARK    3  A    between atoms: C_3  and  C_4 
REMARK    4  A    between atoms: C_7  and  O_6 
REMARK    5  A    between atoms: C_9  and  C_10 
REMARK    6  A    between atoms: N_15  and  C_14 
REMARK    7  A    between atoms: N_20  and  C_19 
REMARK       I    between atoms: C_22  and  N_20 
ROOT
ATOM      1  C   LIG d   1      -5.696  93.603 119.100  0.00  0.00     0.161 C 
ATOM      2  C   LIG d   1      -5.667  94.353 120.288  0.00  0.00     0.016 C 
ATOM      3  C   LIG d   1      -6.649  95.312 120.627  0.00  0.00     0.038 C 
ATOM      4  C   LIG d   1      -7.816  95.479 119.867  0.00  0.00     0.028 C 
ATOM      5  C   LIG d   1      -7.641  95.105 118.399  0.00  0.00    -0.047 C 
ATOM      6  C   LIG d   1      -7.020  93.692 118.312  0.00  0.00     0.091 C 
ENDROOT
BRANCH   1   7
ATOM      7  O   LIG d   1      -5.373  92.227 119.382  0.00  0.00    -0.368 OA
BRANCH   7   8
ATOM      8  C   LIG d   1      -3.981  91.855 119.230  0.00  0.00     0.119 C 
BRANCH   8   9
ATOM      9  C   LIG d   1      -3.431  92.611 118.005  0.00  0.00     0.028 C 
ATOM     10  C   LIG d   1      -2.018  93.168 118.245  0.00  0.00     0.006 C 
ENDBRANCH   8   9
BRANCH   8  11
ATOM     11  C   LIG d   1      -3.835  90.370 118.889  0.00  0.00     0.028 C 
ATOM     12  C   LIG d   1      -4.194  90.056 117.427  0.00  0.00     0.006 C 
ENDBRANCH   8  11
ENDBRANCH   7   8
ENDBRANCH   1   7
BRANCH   6  13
ATOM     13  N   LIG d   1      -6.738  93.283 116.911  0.00  0.00    -0.311 N 
ATOM     14  C   LIG d   1      -7.071  92.093 116.414  0.00  0.00     0.210 C 
ATOM     15  C   LIG d   1      -6.670  91.867 114.953  0.00  0.00     0.109 C 
ATOM     16  O   LIG d   1      -7.689  91.215 117.035  0.00  0.00    -0.276 OA
ATOM     17  H   LIG d   1      -6.266  93.946 116.328  0.00  0.00     0.149 HD
ENDBRANCH   6  13
BRANCH   5  18
ATOM     18  N   LIG d   1      -8.966  95.195 117.756  0.00  0.00     0.381 N 
ATOM     19  H   LIG d   1      -9.623  94.629 118.254  0.00  0.00    -0.090 HD
ATOM     20  H   LIG d   1      -8.895  94.844 116.816  0.00  0.00    -0.090 HD
ATOM     21  H   LIG d   1      -9.275  96.142 117.742  0.00  0.00    -0.090 HD
ENDBRANCH   5  18
BRANCH   3  22
ATOM     22  C   LIG d   1      -6.448  96.144 121.718  0.00  0.00     0.382 C 
ATOM     23  O   LIG d   1      -5.614  97.079 121.648  0.00  0.00    -0.241 OA
ATOM     24  O   LIG d   1      -7.058  95.945 122.785  0.00  0.00    -0.241 OA
ENDBRANCH   3  22
TORSDOF 7
ENDMDL
MODEL 8
REMARK VINA RESULT:      -5.2      2.303      4.361
REMARK  7 active torsions:
REMARK  status: ('A' for Active; 'I' for Inactive)
REMARK    1  A    between atoms: C_2  and  C_3 
REMARK    2  A    between atoms: C_3  and  O_6 
REMARK    3  A    between atoms: C_3  and  C_4 
REMARK    4  A    between atoms: C_7  and  O_6 
REMARK    5  A    between atoms: C_9  and  C_10 
REMARK    6  A    between atoms: N_15  and  C_14 
REMARK    7  A    between atoms: N_20  and  C_19 
REMARK       I    between atoms: C_22  and  N_20 
ROOT
ATOM      1  C   LIG d   1      -7.950  76.241 117.182  0.00  0.00     0.161 C 
ATOM      2  C   LIG d   1      -8.480  74.953 116.996  0.00  0.00     0.016 C 
ATOM      3  C   LIG d   1      -7.694  73.832 116.646  0.00  0.00     0.038 C 
ATOM      4  C   LIG d   1      -6.293  73.892 116.605  0.00  0.00     0.028 C 
ATOM      5  C   LIG d   1      -5.756  75.284 116.290  0.00  0.00    -0.047 C 
ATOM      6  C   LIG d   1      -6.410  76.303 117.250  0.00  0.00     0.091 C 
ENDROOT
BRANCH   1   7
ATOM      7  O   LIG d   1      -8.529  76.843 118.357  0.00  0.00    -0.368 OA
BRANCH   7   8
ATOM      8  C   LIG d   1      -9.450  77.936 118.125  0.00  0.00     0.119 C 
BRANCH   8   9
ATOM      9  C   LIG d   1      -8.863  79.189 118.803  0.00  0.00     0.028 C 
ATOM     10  C   LIG d   1      -8.437  80.261 117.786  0.00  0.00     0.006 C 
ENDBRANCH   8   9
BRANCH   8  11
ATOM     11  C   LIG d   1     -10.792  77.691 118.821  0.00  0.00     0.028 C 
ATOM     12  C   LIG d   1     -10.934  78.475 120.135  0.00  0.00     0.006 C 
ENDBRANCH   8  11
ENDBRANCH   7   8
ENDBRANCH   1   7
BRANCH   6  13
ATOM     13  N   LIG d   1      -6.003  77.702 116.954  0.00  0.00    -0.311 N 
ATOM     14  C   LIG d   1      -5.017  78.329 117.594  0.00  0.00     0.210 C 
ATOM     15  C   LIG d   1      -4.774  79.774 117.148  0.00  0.00     0.109 C 
ATOM     16  O   LIG d   1      -4.300  77.815 118.465  0.00  0.00    -0.276 OA
ATOM     17  H   LIG d   1      -6.512  78.184 116.239  0.00  0.00     0.149 HD
ENDBRANCH   6  13
BRANCH   5  18
ATOM     18  N   LIG d   1      -4.287  75.233 116.414  0.00  0.00     0.381 N 
ATOM     19  H   LIG d   1      -3.893  76.109 116.135  0.00  0.00    -0.090 HD
ATOM     20  H   LIG d   1      -3.933  74.519 115.802  0.00  0.00    -0.090 HD
ATOM     21  H   LIG d   1      -4.031  75.031 117.356  0.00  0.00    -0.090 HD
ENDBRANCH   5  18
BRANCH   3  22
ATOM     22  C   LIG d   1      -8.313  72.642 116.293  0.00  0.00     0.382 C 
ATOM     23  O   LIG d   1      -7.621  71.624 116.049  0.00  0.00    -0.241 OA
ATOM     24  O   LIG d   1      -9.551  72.585 116.174  0.00  0.00    -0.241 OA
ENDBRANCH   3  22
TORSDOF 7
ENDMDL
MODEL 9
REMARK VINA RESULT:      -5.2      2.625      5.642
REMARK  7 active torsions:
REMARK  status: ('A' for Active; 'I' for Inactive)
REMARK    1  A    between atoms: C_2  and  C_3 
REMARK    2  A    between atoms: C_3  and  O_6 
REMARK    3  A    between atoms: C_3  and  C_4 
REMARK    4  A    between atoms: C_7  and  O_6 
REMARK    5  A    between atoms: C_9  and  C_10 
REMARK    6  A    between atoms: N_15  and  C_14 
REMARK    7  A    between atoms: N_20  and  C_19 
REMARK       I    between atoms: C_22  and  N_20 
ROOT
ATOM      1  C   LIG d   1      -6.819  78.481 117.542  0.00  0.00     0.161 C 
ATOM      2  C   LIG d   1      -8.190  78.644 117.802  0.00  0.00     0.016 C 
ATOM      3  C   LIG d   1      -8.794  79.902 118.031  0.00  0.00     0.038 C 
ATOM      4  C   LIG d   1      -8.090  81.104 117.866  0.00  0.00     0.028 C 
ATOM      5  C   LIG d   1      -6.589  80.963 118.101  0.00  0.00    -0.047 C 
ATOM      6  C   LIG d   1      -6.056  79.789 117.249  0.00  0.00     0.091 C 
ENDROOT
BRANCH   1   7
ATOM      7  O   LIG d   1      -6.635  77.540 116.466  0.00  0.00    -0.368 OA
BRANCH   7   8
ATOM      8  C   LIG d   1      -7.058  76.180 116.728  0.00  0.00     0.119 C 
BRANCH   8   9
ATOM      9  C   LIG d   1      -5.851  75.260 116.463  0.00  0.00     0.028 C 
ATOM     10  C   LIG d   1      -6.170  74.151 115.446  0.00  0.00     0.006 C 
ENDBRANCH   8   9
BRANCH   8  11
ATOM     11  C   LIG d   1      -8.135  75.731 115.736  0.00  0.00     0.028 C 
ATOM     12  C   LIG d   1      -9.497  75.487 116.405  0.00  0.00     0.006 C 
ENDBRANCH   8  11
ENDBRANCH   7   8
ENDBRANCH   1   7
BRANCH   6  13
ATOM     13  N   LIG d   1      -4.611  79.529 117.483  0.00  0.00    -0.311 N 
ATOM     14  C   LIG d   1      -3.645  80.002 116.698  0.00  0.00     0.210 C 
ATOM     15  C   LIG d   1      -2.225  79.599 117.107  0.00  0.00     0.109 C 
ATOM     16  O   LIG d   1      -3.827  80.743 115.720  0.00  0.00    -0.276 OA
ATOM     17  H   LIG d   1      -4.372  78.962 118.273  0.00  0.00     0.149 HD
ENDBRANCH   6  13
BRANCH   5  18
ATOM     18  N   LIG d   1      -5.962  82.255 117.762  0.00  0.00     0.381 N 
ATOM     19  H   LIG d   1      -5.730  82.749 118.600  0.00  0.00    -0.090 HD
ATOM     20  H   LIG d   1      -6.620  82.809 117.241  0.00  0.00    -0.090 HD
ATOM     21  H   LIG d   1      -5.141  82.103 117.218  0.00  0.00    -0.090 HD
ENDBRANCH   5  18
BRANCH   3  22
ATOM     22  C   LIG d   1     -10.108  79.964 118.469  0.00  0.00     0.382 C 
ATOM     23  O   LIG d   1     -10.854  78.961 118.358  0.00  0.00    -0.241 OA
ATOM     24  O   LIG d   1     -10.570  81.023 118.933  0.00  0.00    -0.241 OA
ENDBRANCH   3  22
TORSDOF 7
ENDMDL
