MODEL 1
REMARK VINA RESULT:      -5.6      0.000      0.000
REMARK  7 active torsions:
REMARK  status: ('A' for Active; 'I' for Inactive)
REMARK    1  A    between atoms: C_2  and  C_3 
REMARK    2  A    between atoms: C_3  and  O_6 
REMARK    3  A    between atoms: C_3  and  C_4 
REMARK    4  A    between atoms: C_7  and  O_6 
REMARK    5  A    between atoms: C_9  and  C_10 
REMARK    6  A    between atoms: N_15  and  C_14 
REMARK    7  A    between atoms: N_20  and  C_19 
REMARK       I    between atoms: C_22  and  N_20 
ROOT
ATOM      1  C   LIG d   1      -0.393  60.103 118.683  0.00  0.00     0.161 C 
ATOM      2  C   LIG d   1      -1.744  59.772 118.880  0.00  0.00     0.016 C 
ATOM      3  C   LIG d   1      -2.337  58.591 118.378  0.00  0.00     0.038 C 
ATOM      4  C   LIG d   1      -1.577  57.581 117.768  0.00  0.00     0.028 C 
ATOM      5  C   LIG d   1      -0.307  58.098 117.101  0.00  0.00    -0.047 C 
ATOM      6  C   LIG d   1       0.477  58.962 118.116  0.00  0.00     0.091 C 
ENDROOT
BRANCH   1   7
ATOM      7  O   LIG d   1       0.172  60.602 119.911  0.00  0.00    -0.368 OA
BRANCH   7   8
ATOM      8  C   LIG d   1      -0.383  60.059 121.135  0.00  0.00     0.119 C 
BRANCH   8   9
ATOM      9  C   LIG d   1      -0.324  61.169 122.202  0.00  0.00     0.028 C 
ATOM     10  C   LIG d   1       1.099  61.715 122.404  0.00  0.00     0.006 C 
ENDBRANCH   8   9
BRANCH   8  11
ATOM     11  C   LIG d   1       0.485  58.923 121.684  0.00  0.00     0.028 C 
ATOM     12  C   LIG d   1      -0.202  57.551 121.592  0.00  0.00     0.006 C 
ENDBRANCH   8  11
ENDBRANCH   7   8
ENDBRANCH   1   7
BRANCH   6  13
ATOM     13  N   LIG d   1       1.691  59.576 117.519  0.00  0.00    -0.311 N 
ATOM     14  C   LIG d   1       2.912  59.435 118.033  0.00  0.00     0.210 C 
ATOM     15  C   LIG d   1       4.022  60.167 117.272  0.00  0.00     0.109 C 
ATOM     16  O   LIG d   1       3.186  58.747 119.027  0.00  0.00    -0.276 OA
ATOM     17  H   LIG d   1       1.565  60.125 116.692  0.00  0.00     0.149 HD
ENDBRANCH   6  13
BRANCH   5  18
ATOM     18  N   LIG d   1       0.456  56.927 116.628  0.00  0.00     0.381 N 
ATOM     19  H   LIG d   1       1.280  57.231 116.150  0.00  0.00    -0.090 HD
ATOM     20  H   LIG d   1      -0.112  56.410 115.980  0.00  0.00    -0.090 HD
ATOM     21  H   LIG d   1       0.705  56.348 117.399  0.00  0.00    -0.090 HD
ENDBRANCH   5  18
BRANCH   3  22
ATOM     22  C   LIG d   1      -3.712  58.429 118.448  0.00  0.00     0.382 C 
ATOM     23  O   LIG d   1      -4.196  57.373 118.924  0.00  0.00    -0.241 OA
ATOM     24  O   LIG d   1      -4.475  59.306 118.000  0.00  0.00    -0.241 OA
ENDBRANCH   3  22
TORSDOF 7
ENDMDL
MODEL 2
REMARK VINA RESULT:      -5.6      2.360      5.686
REMARK  7 active torsions:
REMARK  status: ('A' for Active; 'I' for Inactive)
REMARK    1  A    between atoms: C_2  and  C_3 
REMARK    2  A    between atoms: C_3  and  O_6 
REMARK    3  A    between atoms: C_3  and  C_4 
REMARK    4  A    between atoms: C_7  and  O_6 
REMARK    5  A    between atoms: C_9  and  C_10 
REMARK    6  A    between atoms: N_15  and  C_14 
REMARK    7  A    between atoms: N_20  and  C_19 
REMARK       I    between atoms: C_22  and  N_20 
ROOT
ATOM      1  C   LIG d   1      -0.551  60.365 119.377  0.00  0.00     0.161 C 
ATOM      2  C   LIG d   1       0.583  60.433 118.550  0.00  0.00     0.016 C 
ATOM      3  C   LIG d   1       1.688  59.560 118.671  0.00  0.00     0.038 C 
ATOM      4  C   LIG d   1       1.669  58.455 119.535  0.00  0.00     0.028 C 
ATOM      5  C   LIG d   1       0.757  58.646 120.743  0.00  0.00    -0.047 C 
ATOM      6  C   LIG d   1      -0.638  59.097 120.252  0.00  0.00     0.091 C 
ENDROOT
BRANCH   1   7
ATOM      7  O   LIG d   1      -1.745  60.509 118.583  0.00  0.00    -0.368 OA
BRANCH   7   8
ATOM      8  C   LIG d   1      -2.396  59.278 118.183  0.00  0.00     0.119 C 
BRANCH   8   9
ATOM      9  C   LIG d   1      -2.253  59.155 116.653  0.00  0.00     0.028 C 
ATOM     10  C   LIG d   1      -1.147  58.169 116.244  0.00  0.00     0.006 C 
ENDBRANCH   8   9
BRANCH   8  11
ATOM     11  C   LIG d   1      -3.903  59.333 118.447  0.00  0.00     0.028 C 
ATOM     12  C   LIG d   1      -4.618  60.395 117.596  0.00  0.00     0.006 C 
ENDBRANCH   8  11
ENDBRANCH   7   8
ENDBRANCH   1   7
BRANCH   6  13
ATOM     13  N   LIG d   1      -1.567  59.388 121.375  0.00  0.00    -0.311 N 
ATOM     14  C   LIG d   1      -2.470  58.518 121.824  0.00  0.00     0.210 C 
ATOM     15  C   LIG d   1      -3.341  59.027 122.977  0.00  0.00     0.109 C 
ATOM     16  O   LIG d   1      -2.610  57.362 121.398  0.00  0.00    -0.276 OA
ATOM     17  H   LIG d   1      -1.500  60.293 121.800  0.00  0.00     0.149 HD
ENDBRANCH   6  13
BRANCH   5  18
ATOM     18  N   LIG d   1       0.726  57.371 121.484  0.00  0.00     0.381 N 
ATOM     19  H   LIG d   1       0.259  57.500 122.360  0.00  0.00    -0.090 HD
ATOM     20  H   LIG d   1       1.669  57.079 121.669  0.00  0.00    -0.090 HD
ATOM     21  H   LIG d   1       0.254  56.677 120.947  0.00  0.00    -0.090 HD
ENDBRANCH   5  18
BRANCH   3  22
ATOM     22  C   LIG d   1       2.845  59.811 117.949  0.00  0.00     0.382 C 
ATOM     23  O   LIG d   1       2.797  60.520 116.915  0.00  0.00    -0.241 OA
ATOM     24  O   LIG d   1       3.928  59.302 118.294  0.00  0.00    -0.241 OA
ENDBRANCH   3  22
TORSDOF 7
ENDMDL
MODEL 3
REMARK VINA RESULT:      -5.5      2.514      4.373
REMARK  7 active torsions:
REMARK  status: ('A' for Active; 'I' for Inactive)
REMARK    1  A    between atoms: C_2  and  C_3 
REMARK    2  A    between atoms: C_3  and  O_6 
REMARK    3  A    between atoms: C_3  and  C_4 
REMARK    4  A    between atoms: C_7  and  O_6 
REMARK    5  A    between atoms: C_9  and  C_10 
REMARK    6  A    between atoms: N_15  and  C_14 
REMARK    7  A    between atoms: N_20  and  C_19 
REMARK       I    between atoms: C_22  and  N_20 
ROOT
ATOM      1  C   LIG d   1       0.608  57.615 118.296  0.00  0.00     0.161 C 
ATOM      2  C   LIG d   1       0.580  58.431 117.153  0.00  0.00     0.016 C 
ATOM      3  C   LIG d   1      -0.615  58.852 116.526  0.00  0.00     0.038 C 
ATOM      4  C   LIG d   1      -1.875  58.607 117.092  0.00  0.00     0.028 C 
ATOM      5  C   LIG d   1      -1.914  57.360 117.969  0.00  0.00    -0.047 C 
ATOM      6  C   LIG d   1      -0.757  57.431 118.992  0.00  0.00     0.091 C 
ENDROOT
BRANCH   1   7
ATOM      7  O   LIG d   1       1.583  58.117 119.231  0.00  0.00    -0.368 OA
BRANCH   7   8
ATOM      8  C   LIG d   1       1.878  59.533 119.146  0.00  0.00     0.119 C 
BRANCH   8   9
ATOM      9  C   LIG d   1       3.410  59.691 119.202  0.00  0.00     0.028 C 
ATOM     10  C   LIG d   1       4.050  59.699 117.804  0.00  0.00     0.006 C 
ENDBRANCH   8   9
BRANCH   8  11
ATOM     11  C   LIG d   1       1.347  60.287 120.369  0.00  0.00     0.028 C 
ATOM     12  C   LIG d   1      -0.093  60.790 120.181  0.00  0.00     0.006 C 
ENDBRANCH   8  11
ENDBRANCH   7   8
ENDBRANCH   1   7
BRANCH   6  13
ATOM     13  N   LIG d   1      -0.671  56.210 119.835  0.00  0.00    -0.311 N 
ATOM     14  C   LIG d   1      -0.605  56.240 121.165  0.00  0.00     0.210 C 
ATOM     15  C   LIG d   1      -0.502  54.868 121.838  0.00  0.00     0.109 C 
ATOM     16  O   LIG d   1      -0.656  57.271 121.852  0.00  0.00    -0.276 OA
ATOM     17  H   LIG d   1      -0.656  55.328 119.360  0.00  0.00     0.149 HD
ENDBRANCH   6  13
BRANCH   5  18
ATOM     18  N   LIG d   1      -3.244  57.302 118.603  0.00  0.00     0.381 N 
ATOM     19  H   LIG d   1      -3.147  57.091 119.576  0.00  0.00    -0.090 HD
ATOM     20  H   LIG d   1      -3.778  56.568 118.172  0.00  0.00    -0.090 HD
ATOM     21  H   LIG d   1      -3.714  58.174 118.490  0.00  0.00    -0.090 HD
ENDBRANCH   5  18
BRANCH   3  22
ATOM     22  C   LIG d   1      -0.558  59.491 115.297  0.00  0.00     0.382 C 
ATOM     23  O   LIG d   1      -1.590  60.018 114.815  0.00  0.00    -0.241 OA
ATOM     24  O   LIG d   1       0.502  59.510 114.643  0.00  0.00    -0.241 OA
ENDBRANCH   3  22
TORSDOF 7
ENDMDL
MODEL 4
REMARK VINA RESULT:      -5.3     18.267     19.648
REMARK  7 active torsions:
REMARK  status: ('A' for Active; 'I' for Inactive)
REMARK    1  A    between atoms: C_2  and  C_3 
REMARK    2  A    between atoms: C_3  and  O_6 
REMARK    3  A    between atoms: C_3  and  C_4 
REMARK    4  A    between atoms: C_7  and  O_6 
REMARK    5  A    between atoms: C_9  and  C_10 
REMARK    6  A    between atoms: N_15  and  C_14 
REMARK    7  A    between atoms: N_20  and  C_19 
REMARK       I    between atoms: C_22  and  N_20 
ROOT
ATOM      1  C   LIG d   1      -6.607  76.718 118.352  0.00  0.00     0.161 C 
ATOM      2  C   LIG d   1      -7.991  76.670 118.585  0.00  0.00     0.016 C 
ATOM      3  C   LIG d   1      -8.847  77.784 118.422  0.00  0.00     0.038 C 
ATOM      4  C   LIG d   1      -8.396  78.990 117.865  0.00  0.00     0.028 C 
ATOM      5  C   LIG d   1      -6.909  79.242 118.089  0.00  0.00    -0.047 C 
ATOM      6  C   LIG d   1      -6.115  77.995 117.637  0.00  0.00     0.091 C 
ENDROOT
BRANCH   1   7
ATOM      7  O   LIG d   1      -6.193  75.546 117.623  0.00  0.00    -0.368 OA
BRANCH   7   8
ATOM      8  C   LIG d   1      -7.119  75.059 116.620  0.00  0.00     0.119 C 
BRANCH   8   9
ATOM      9  C   LIG d   1      -7.051  73.520 116.636  0.00  0.00     0.028 C 
ATOM     10  C   LIG d   1      -8.194  72.890 117.449  0.00  0.00     0.006 C 
ENDBRANCH   8   9
BRANCH   8  11
ATOM     11  C   LIG d   1      -6.680  75.470 115.211  0.00  0.00     0.028 C 
ATOM     12  C   LIG d   1      -5.175  75.267 114.973  0.00  0.00     0.006 C 
ENDBRANCH   8  11
ENDBRANCH   7   8
ENDBRANCH   1   7
BRANCH   6  13
ATOM     13  N   LIG d   1      -4.658  78.124 117.900  0.00  0.00    -0.311 N 
ATOM     14  C   LIG d   1      -3.780  78.516 116.978  0.00  0.00     0.210 C 
ATOM     15  C   LIG d   1      -2.324  78.563 117.452  0.00  0.00     0.109 C 
ATOM     16  O   LIG d   1      -4.072  78.860 115.823  0.00  0.00    -0.276 OA
ATOM     17  H   LIG d   1      -4.338  77.895 118.820  0.00  0.00     0.149 HD
ENDBRANCH   6  13
BRANCH   5  18
ATOM     18  N   LIG d   1      -6.546  80.460 117.341  0.00  0.00     0.381 N 
ATOM     19  H   LIG d   1      -6.588  81.255 117.947  0.00  0.00    -0.090 HD
ATOM     20  H   LIG d   1      -7.209  80.595 116.598  0.00  0.00    -0.090 HD
ATOM     21  H   LIG d   1      -5.629  80.369 116.964  0.00  0.00    -0.090 HD
ENDBRANCH   5  18
BRANCH   3  22
ATOM     22  C   LIG d   1     -10.162  77.709 118.856  0.00  0.00     0.382 C 
ATOM     23  O   LIG d   1     -11.023  77.129 118.152  0.00  0.00    -0.241 OA
ATOM     24  O   LIG d   1     -10.507  78.253 119.922  0.00  0.00    -0.241 OA
ENDBRANCH   3  22
TORSDOF 7
ENDMDL
MODEL 5
REMARK VINA RESULT:      -5.2     31.747     33.475
REMARK  7 active torsions:
REMARK  status: ('A' for Active; 'I' for Inactive)
REMARK    1  A    between atoms: C_2  and  C_3 
REMARK    2  A    between atoms: C_3  and  O_6 
REMARK    3  A    between atoms: C_3  and  C_4 
REMARK    4  A    between atoms: C_7  and  O_6 
REMARK    5  A    between atoms: C_9  and  C_10 
REMARK    6  A    between atoms: N_15  and  C_14 
REMARK    7  A    between atoms: N_20  and  C_19 
REMARK       I    between atoms: C_22  and  N_20 
ROOT
ATOM      1  C   LIG d   1      -5.185  91.752 118.356  0.00  0.00     0.161 C 
ATOM      2  C   LIG d   1      -5.499  90.952 117.245  0.00  0.00     0.016 C 
ATOM      3  C   LIG d   1      -6.398  91.349 116.229  0.00  0.00     0.038 C 
ATOM      4  C   LIG d   1      -6.933  92.645 116.178  0.00  0.00     0.028 C 
ATOM      5  C   LIG d   1      -7.040  93.311 117.545  0.00  0.00    -0.047 C 
ATOM      6  C   LIG d   1      -5.673  93.213 118.260  0.00  0.00     0.091 C 
ENDROOT
BRANCH   1   7
ATOM      7  O   LIG d   1      -3.765  91.713 118.601  0.00  0.00    -0.368 OA
BRANCH   7   8
ATOM      8  C   LIG d   1      -3.312  90.735 119.569  0.00  0.00     0.119 C 
BRANCH   8   9
ATOM      9  C   LIG d   1      -2.721  91.506 120.765  0.00  0.00     0.028 C 
ATOM     10  C   LIG d   1      -3.680  91.550 121.966  0.00  0.00     0.006 C 
ENDBRANCH   8   9
BRANCH   8  11
ATOM     11  C   LIG d   1      -2.155  89.898 119.015  0.00  0.00     0.028 C 
ATOM     12  C   LIG d   1      -2.633  88.701 118.178  0.00  0.00     0.006 C 
ENDBRANCH   8  11
ENDBRANCH   7   8
ENDBRANCH   1   7
BRANCH   6  13
ATOM     13  N   LIG d   1      -5.713  93.766 119.639  0.00  0.00    -0.311 N 
ATOM     14  C   LIG d   1      -4.812  94.626 120.110  0.00  0.00     0.210 C 
ATOM     15  C   LIG d   1      -5.027  95.055 121.565  0.00  0.00     0.109 C 
ATOM     16  O   LIG d   1      -3.873  95.098 119.452  0.00  0.00    -0.276 OA
ATOM     17  H   LIG d   1      -6.460  93.460 120.231  0.00  0.00     0.149 HD
ENDBRANCH   6  13
BRANCH   5  18
ATOM     18  N   LIG d   1      -7.482  94.702 117.330  0.00  0.00     0.381 N 
ATOM     19  H   LIG d   1      -8.424  94.811 117.649  0.00  0.00    -0.090 HD
ATOM     20  H   LIG d   1      -7.456  94.903 116.346  0.00  0.00    -0.090 HD
ATOM     21  H   LIG d   1      -6.883  95.329 117.821  0.00  0.00    -0.090 HD
ENDBRANCH   5  18
BRANCH   3  22
ATOM     22  C   LIG d   1      -6.802  90.431 115.272  0.00  0.00     0.382 C 
ATOM     23  O   LIG d   1      -7.949  90.512 114.770  0.00  0.00    -0.241 OA
ATOM     24  O   LIG d   1      -6.051  89.496 114.936  0.00  0.00    -0.241 OA
ENDBRANCH   3  22
TORSDOF 7
ENDMDL
MODEL 6
REMARK VINA RESULT:      -5.2     17.084     18.385
REMARK  7 active torsions:
REMARK  status: ('A' for Active; 'I' for Inactive)
REMARK    1  A    between atoms: C_2  and  C_3 
REMARK    2  A    between atoms: C_3  and  O_6 
REMARK    3  A    between atoms: C_3  and  C_4 
REMARK    4  A    between atoms: C_7  and  O_6 
REMARK    5  A    between atoms: C_9  and  C_10 
REMARK    6  A    between atoms: N_15  and  C_14 
REMARK    7  A    between atoms: N_20  and  C_19 
REMARK       I    between atoms: C_22  and  N_20 
ROOT
ATOM      1  C   LIG d   1      -7.977  75.434 117.892  0.00  0.00     0.161 C 
ATOM      2  C   LIG d   1      -8.226  74.054 117.808  0.00  0.00     0.016 C 
ATOM      3  C   LIG d   1      -7.501  73.182 116.962  0.00  0.00     0.038 C 
ATOM      4  C   LIG d   1      -6.370  73.610 116.251  0.00  0.00     0.028 C 
ATOM      5  C   LIG d   1      -6.393  75.098 115.915  0.00  0.00    -0.047 C 
ATOM      6  C   LIG d   1      -6.675  75.899 117.207  0.00  0.00     0.091 C 
ENDROOT
BRANCH   1   7
ATOM      7  O   LIG d   1      -7.993  75.850 119.272  0.00  0.00    -0.368 OA
BRANCH   7   8
ATOM      8  C   LIG d   1      -9.235  76.421 119.751  0.00  0.00     0.119 C 
BRANCH   8   9
ATOM      9  C   LIG d   1      -9.839  77.247 118.598  0.00  0.00     0.028 C 
ATOM     10  C   LIG d   1      -9.860  78.754 118.904  0.00  0.00     0.006 C 
ENDBRANCH   8   9
BRANCH   8  11
ATOM     11  C   LIG d   1      -8.988  77.424 120.882  0.00  0.00     0.028 C 
ATOM     12  C   LIG d   1      -7.574  77.317 121.475  0.00  0.00     0.006 C 
ENDBRANCH   8  11
ENDBRANCH   7   8
ENDBRANCH   1   7
BRANCH   6  13
ATOM     13  N   LIG d   1      -6.797  77.358 116.953  0.00  0.00    -0.311 N 
ATOM     14  C   LIG d   1      -6.225  78.286 117.718  0.00  0.00     0.210 C 
ATOM     15  C   LIG d   1      -6.494  79.732 117.292  0.00  0.00     0.109 C 
ATOM     16  O   LIG d   1      -5.494  78.048 118.691  0.00  0.00    -0.276 OA
ATOM     17  H   LIG d   1      -7.348  77.640 116.165  0.00  0.00     0.149 HD
ENDBRANCH   6  13
BRANCH   5  18
ATOM     18  N   LIG d   1      -5.097  75.435 115.297  0.00  0.00     0.381 N 
ATOM     19  H   LIG d   1      -5.220  75.592 114.317  0.00  0.00    -0.090 HD
ATOM     20  H   LIG d   1      -4.468  74.660 115.416  0.00  0.00    -0.090 HD
ATOM     21  H   LIG d   1      -4.716  76.250 115.726  0.00  0.00    -0.090 HD
ENDBRANCH   5  18
BRANCH   3  22
ATOM     22  C   LIG d   1      -7.931  71.875 116.792  0.00  0.00     0.382 C 
ATOM     23  O   LIG d   1      -8.962  71.472 117.382  0.00  0.00    -0.241 OA
ATOM     24  O   LIG d   1      -7.276  71.081 116.090  0.00  0.00    -0.241 OA
ENDBRANCH   3  22
TORSDOF 7
ENDMDL
MODEL 7
REMARK VINA RESULT:      -5.2      2.466      5.775
REMARK  7 active torsions:
REMARK  status: ('A' for Active; 'I' for Inactive)
REMARK    1  A    between atoms: C_2  and  C_3 
REMARK    2  A    between atoms: C_3  and  O_6 
REMARK    3  A    between atoms: C_3  and  C_4 
REMARK    4  A    between atoms: C_7  and  O_6 
REMARK    5  A    between atoms: C_9  and  C_10 
REMARK    6  A    between atoms: N_15  and  C_14 
REMARK    7  A    between atoms: N_20  and  C_19 
REMARK       I    between atoms: C_22  and  N_20 
ROOT
ATOM      1  C   LIG d   1      -0.364  60.608 119.092  0.00  0.00     0.161 C 
ATOM      2  C   LIG d   1       0.783  60.620 119.902  0.00  0.00     0.016 C 
ATOM      3  C   LIG d   1       0.767  60.294 121.278  0.00  0.00     0.038 C 
ATOM      4  C   LIG d   1      -0.379  59.785 121.906  0.00  0.00     0.028 C 
ATOM      5  C   LIG d   1      -1.680  60.234 121.250  0.00  0.00    -0.047 C 
ATOM      6  C   LIG d   1      -1.602  59.947 119.733  0.00  0.00     0.091 C 
ENDROOT
BRANCH   1   7
ATOM      7  O   LIG d   1      -0.063  59.985 117.827  0.00  0.00    -0.368 OA
BRANCH   7   8
ATOM      8  C   LIG d   1      -0.247  58.549 117.764  0.00  0.00     0.119 C 
BRANCH   8   9
ATOM      9  C   LIG d   1       1.141  57.913 117.554  0.00  0.00     0.028 C 
ATOM     10  C   LIG d   1       1.666  57.219 118.821  0.00  0.00     0.006 C 
ENDBRANCH   8   9
BRANCH   8  11
ATOM     11  C   LIG d   1      -1.068  58.147 116.535  0.00  0.00     0.028 C 
ATOM     12  C   LIG d   1      -1.621  59.356 115.766  0.00  0.00     0.006 C 
ENDBRANCH   8  11
ENDBRANCH   7   8
ENDBRANCH   1   7
BRANCH   6  13
ATOM     13  N   LIG d   1      -2.801  60.434 119.002  0.00  0.00    -0.311 N 
ATOM     14  C   LIG d   1      -3.807  59.642 118.635  0.00  0.00     0.210 C 
ATOM     15  C   LIG d   1      -4.937  60.343 117.873  0.00  0.00     0.109 C 
ATOM     16  O   LIG d   1      -3.886  58.432 118.895  0.00  0.00    -0.276 OA
ATOM     17  H   LIG d   1      -2.834  61.409 118.778  0.00  0.00     0.149 HD
ENDBRANCH   6  13
BRANCH   5  18
ATOM     18  N   LIG d   1      -2.785  59.521 121.918  0.00  0.00     0.381 N 
ATOM     19  H   LIG d   1      -3.151  58.817 121.308  0.00  0.00    -0.090 HD
ATOM     20  H   LIG d   1      -3.520  60.177 122.119  0.00  0.00    -0.090 HD
ATOM     21  H   LIG d   1      -2.461  59.104 122.762  0.00  0.00    -0.090 HD
ENDBRANCH   5  18
BRANCH   3  22
ATOM     22  C   LIG d   1       1.898  60.516 122.049  0.00  0.00     0.382 C 
ATOM     23  O   LIG d   1       2.870  59.726 121.979  0.00  0.00    -0.241 OA
ATOM     24  O   LIG d   1       1.941  61.471 122.848  0.00  0.00    -0.241 OA
ENDBRANCH   3  22
TORSDOF 7
ENDMDL
MODEL 8
REMARK VINA RESULT:      -5.1     33.232     34.920
REMARK  7 active torsions:
REMARK  status: ('A' for Active; 'I' for Inactive)
REMARK    1  A    between atoms: C_2  and  C_3 
REMARK    2  A    between atoms: C_3  and  O_6 
REMARK    3  A    between atoms: C_3  and  C_4 
REMARK    4  A    between atoms: C_7  and  O_6 
REMARK    5  A    between atoms: C_9  and  C_10 
REMARK    6  A    between atoms: N_15  and  C_14 
REMARK    7  A    between atoms: N_20  and  C_19 
REMARK       I    between atoms: C_22  and  N_20 
ROOT
ATOM      1  C   LIG d   1      -6.449  93.524 117.960  0.00  0.00     0.161 C 
ATOM      2  C   LIG d   1      -7.000  92.413 117.299  0.00  0.00     0.016 C 
ATOM      3  C   LIG d   1      -6.292  91.210 117.078  0.00  0.00     0.038 C 
ATOM      4  C   LIG d   1      -5.026  90.980 117.639  0.00  0.00     0.028 C 
ATOM      5  C   LIG d   1      -4.231  92.258 117.883  0.00  0.00    -0.047 C 
ATOM      6  C   LIG d   1      -5.110  93.252 118.676  0.00  0.00     0.091 C 
ENDROOT
BRANCH   1   7
ATOM      7  O   LIG d   1      -7.411  94.068 118.885  0.00  0.00    -0.368 OA
BRANCH   7   8
ATOM      8  C   LIG d   1      -8.398  94.968 118.324  0.00  0.00     0.119 C 
BRANCH   8   9
ATOM      9  C   LIG d   1      -7.719  96.337 118.128  0.00  0.00     0.028 C 
ATOM     10  C   LIG d   1      -7.309  96.984 119.462  0.00  0.00     0.006 C 
ENDBRANCH   8   9
BRANCH   8  11
ATOM     11  C   LIG d   1      -9.545  95.220 119.307  0.00  0.00     0.028 C 
ATOM     12  C   LIG d   1      -9.727  94.076 120.316  0.00  0.00     0.006 C 
ENDBRANCH   8  11
ENDBRANCH   7   8
ENDBRANCH   1   7
BRANCH   6  13
ATOM     13  N   LIG d   1      -4.438  94.561 118.885  0.00  0.00    -0.311 N 
ATOM     14  C   LIG d   1      -4.196  95.078 120.089  0.00  0.00     0.210 C 
ATOM     15  C   LIG d   1      -3.511  96.448 120.079  0.00  0.00     0.109 C 
ATOM     16  O   LIG d   1      -4.456  94.517 121.164  0.00  0.00    -0.276 OA
ATOM     17  H   LIG d   1      -4.165  95.070 118.066  0.00  0.00     0.149 HD
ENDBRANCH   6  13
BRANCH   5  18
ATOM     18  N   LIG d   1      -2.994  91.884 118.595  0.00  0.00     0.381 N 
ATOM     19  H   LIG d   1      -2.685  90.984 118.287  0.00  0.00    -0.090 HD
ATOM     20  H   LIG d   1      -3.189  91.831 119.579  0.00  0.00    -0.090 HD
ATOM     21  H   LIG d   1      -2.285  92.563 118.426  0.00  0.00    -0.090 HD
ENDBRANCH   5  18
BRANCH   3  22
ATOM     22  C   LIG d   1      -6.833  90.235 116.253  0.00  0.00     0.382 C 
ATOM     23  O   LIG d   1      -6.089  89.578 115.487  0.00  0.00    -0.241 OA
ATOM     24  O   LIG d   1      -8.063  90.036 116.234  0.00  0.00    -0.241 OA
ENDBRANCH   3  22
TORSDOF 7
ENDMDL
MODEL 9
REMARK VINA RESULT:      -5.1     19.031     20.578
REMARK  7 active torsions:
REMARK  status: ('A' for Active; 'I' for Inactive)
REMARK    1  A    between atoms: C_2  and  C_3 
REMARK    2  A    between atoms: C_3  and  O_6 
REMARK    3  A    between atoms: C_3  and  C_4 
REMARK    4  A    between atoms: C_7  and  O_6 
REMARK    5  A    between atoms: C_9  and  C_10 
REMARK    6  A    between atoms: N_15  and  C_14 
REMARK    7  A    between atoms: N_20  and  C_19 
REMARK       I    between atoms: C_22  and  N_20 
ROOT
ATOM      1  C   LIG d   1      -7.141  77.737 117.687  0.00  0.00     0.161 C 
ATOM      2  C   LIG d   1      -6.147  77.660 116.697  0.00  0.00     0.016 C 
ATOM      3  C   LIG d   1      -5.863  76.481 115.970  0.00  0.00     0.038 C 
ATOM      4  C   LIG d   1      -6.661  75.333 116.078  0.00  0.00     0.028 C 
ATOM      5  C   LIG d   1      -7.357  75.204 117.429  0.00  0.00    -0.047 C 
ATOM      6  C   LIG d   1      -8.095  76.526 117.741  0.00  0.00     0.091 C 
ENDROOT
BRANCH   1   7
ATOM      7  O   LIG d   1      -7.890  78.959 117.533  0.00  0.00    -0.368 OA
BRANCH   7   8
ATOM      8  C   LIG d   1      -7.704  79.955 118.569  0.00  0.00     0.119 C 
BRANCH   8   9
ATOM      9  C   LIG d   1      -9.101  80.443 118.997  0.00  0.00     0.028 C 
ATOM     10  C   LIG d   1      -9.980  80.835 117.797  0.00  0.00     0.006 C 
ENDBRANCH   8   9
BRANCH   8  11
ATOM     11  C   LIG d   1      -6.989  81.196 118.026  0.00  0.00     0.028 C 
ATOM     12  C   LIG d   1      -6.847  82.308 119.077  0.00  0.00     0.006 C 
ENDBRANCH   8  11
ENDBRANCH   7   8
ENDBRANCH   1   7
BRANCH   6  13
ATOM     13  N   LIG d   1      -8.734  76.516 119.083  0.00  0.00    -0.311 N 
ATOM     14  C   LIG d   1      -9.969  76.959 119.310  0.00  0.00     0.210 C 
ATOM     15  C   LIG d   1     -10.427  76.877 120.770  0.00  0.00     0.109 C 
ATOM     16  O   LIG d   1     -10.740  77.383 118.437  0.00  0.00    -0.276 OA
ATOM     17  H   LIG d   1      -8.190  76.159 119.844  0.00  0.00     0.149 HD
ENDBRANCH   6  13
BRANCH   5  18
ATOM     18  N   LIG d   1      -8.261  74.041 117.356  0.00  0.00     0.381 N 
ATOM     19  H   LIG d   1      -8.501  73.857 116.402  0.00  0.00    -0.090 HD
ATOM     20  H   LIG d   1      -9.105  74.252 117.858  0.00  0.00    -0.090 HD
ATOM     21  H   LIG d   1      -7.820  73.241 117.754  0.00  0.00    -0.090 HD
ENDBRANCH   5  18
BRANCH   3  22
ATOM     22  C   LIG d   1      -4.745  76.431 115.151  0.00  0.00     0.382 C 
ATOM     23  O   LIG d   1      -4.450  75.366 114.557  0.00  0.00    -0.241 OA
ATOM     24  O   LIG d   1      -4.002  77.424 115.035  0.00  0.00    -0.241 OA
ENDBRANCH   3  22
TORSDOF 7
ENDMDL
