MODEL 1
REMARK VINA RESULT:      -5.6      0.000      0.000
REMARK  7 active torsions:
REMARK  status: ('A' for Active; 'I' for Inactive)
REMARK    1  A    between atoms: C_2  and  C_3 
REMARK    2  A    between atoms: C_3  and  O_6 
REMARK    3  A    between atoms: C_3  and  C_4 
REMARK    4  A    between atoms: C_7  and  O_6 
REMARK    5  A    between atoms: C_9  and  C_10 
REMARK    6  A    between atoms: N_15  and  C_14 
REMARK    7  A    between atoms: N_20  and  C_19 
REMARK       I    between atoms: C_22  and  N_20 
ROOT
ATOM      1  C   LIG d   1       0.232  58.407 119.372  0.00  0.00     0.161 C 
ATOM      2  C   LIG d   1       0.145  58.785 118.022  0.00  0.00     0.016 C 
ATOM      3  C   LIG d   1      -0.865  59.635 117.516  0.00  0.00     0.038 C 
ATOM      4  C   LIG d   1      -1.774  60.291 118.360  0.00  0.00     0.028 C 
ATOM      5  C   LIG d   1      -2.037  59.544 119.663  0.00  0.00    -0.047 C 
ATOM      6  C   LIG d   1      -0.684  59.201 120.327  0.00  0.00     0.091 C 
ENDROOT
BRANCH   1   7
ATOM      7  O   LIG d   1       1.602  58.484 119.813  0.00  0.00    -0.368 OA
BRANCH   7   8
ATOM      8  C   LIG d   1       2.227  59.788 119.727  0.00  0.00     0.119 C 
BRANCH   8   9
ATOM      9  C   LIG d   1       3.609  59.597 119.073  0.00  0.00     0.028 C 
ATOM     10  C   LIG d   1       3.625  60.028 117.597  0.00  0.00     0.006 C 
ENDBRANCH   8   9
BRANCH   8  11
ATOM     11  C   LIG d   1       2.513  60.363 121.117  0.00  0.00     0.028 C 
ATOM     12  C   LIG d   1       3.987  60.750 121.311  0.00  0.00     0.006 C 
ENDBRANCH   8  11
ENDBRANCH   7   8
ENDBRANCH   1   7
BRANCH   6  13
ATOM     13  N   LIG d   1      -0.848  58.396 121.565  0.00  0.00    -0.311 N 
ATOM     14  C   LIG d   1      -0.904  58.930 122.784  0.00  0.00     0.210 C 
ATOM     15  C   LIG d   1      -1.056  57.920 123.926  0.00  0.00     0.109 C 
ATOM     16  O   LIG d   1      -0.874  60.146 123.026  0.00  0.00    -0.276 OA
ATOM     17  H   LIG d   1      -0.912  57.403 121.459  0.00  0.00     0.149 HD
ENDBRANCH   6  13
BRANCH   5  18
ATOM     18  N   LIG d   1      -2.892  60.404 120.504  0.00  0.00     0.381 N 
ATOM     19  H   LIG d   1      -3.855  60.241 120.286  0.00  0.00    -0.090 HD
ATOM     20  H   LIG d   1      -2.682  61.366 120.304  0.00  0.00    -0.090 HD
ATOM     21  H   LIG d   1      -2.725  60.213 121.467  0.00  0.00    -0.090 HD
ENDBRANCH   5  18
BRANCH   3  22
ATOM     22  C   LIG d   1      -0.998  59.805 116.146  0.00  0.00     0.382 C 
ATOM     23  O   LIG d   1      -2.134  59.761 115.616  0.00  0.00    -0.241 OA
ATOM     24  O   LIG d   1       0.009  59.957 115.428  0.00  0.00    -0.241 OA
ENDBRANCH   3  22
TORSDOF 7
ENDMDL
MODEL 2
REMARK VINA RESULT:      -5.4     32.559     33.559
REMARK  7 active torsions:
REMARK  status: ('A' for Active; 'I' for Inactive)
REMARK    1  A    between atoms: C_2  and  C_3 
REMARK    2  A    between atoms: C_3  and  O_6 
REMARK    3  A    between atoms: C_3  and  C_4 
REMARK    4  A    between atoms: C_7  and  O_6 
REMARK    5  A    between atoms: C_9  and  C_10 
REMARK    6  A    between atoms: N_15  and  C_14 
REMARK    7  A    between atoms: N_20  and  C_19 
REMARK       I    between atoms: C_22  and  N_20 
ROOT
ATOM      1  C   LIG d   1      -5.740  91.931 118.297  0.00  0.00     0.161 C 
ATOM      2  C   LIG d   1      -6.302  90.989 117.420  0.00  0.00     0.016 C 
ATOM      3  C   LIG d   1      -7.051  91.342 116.274  0.00  0.00     0.038 C 
ATOM      4  C   LIG d   1      -7.161  92.672 115.841  0.00  0.00     0.028 C 
ATOM      5  C   LIG d   1      -7.036  93.689 116.971  0.00  0.00    -0.047 C 
ATOM      6  C   LIG d   1      -5.754  93.385 117.780  0.00  0.00     0.091 C 
ENDROOT
BRANCH   1   7
ATOM      7  O   LIG d   1      -4.397  91.535 118.643  0.00  0.00    -0.368 OA
BRANCH   7   8
ATOM      8  C   LIG d   1      -3.398  91.698 117.606  0.00  0.00     0.119 C 
BRANCH   8   9
ATOM      9  C   LIG d   1      -2.858  90.296 117.261  0.00  0.00     0.028 C 
ATOM     10  C   LIG d   1      -3.018  89.303 118.423  0.00  0.00     0.006 C 
ENDBRANCH   8   9
BRANCH   8  11
ATOM     11  C   LIG d   1      -2.187  92.484 118.117  0.00  0.00     0.028 C 
ATOM     12  C   LIG d   1      -2.208  92.687 119.640  0.00  0.00     0.006 C 
ENDBRANCH   8  11
ENDBRANCH   7   8
ENDBRANCH   1   7
BRANCH   6  13
ATOM     13  N   LIG d   1      -5.600  94.281 118.955  0.00  0.00    -0.311 N 
ATOM     14  C   LIG d   1      -4.703  95.264 119.015  0.00  0.00     0.210 C 
ATOM     15  C   LIG d   1      -4.698  96.056 120.326  0.00  0.00     0.109 C 
ATOM     16  O   LIG d   1      -3.934  95.576 118.094  0.00  0.00    -0.276 OA
ATOM     17  H   LIG d   1      -6.205  94.118 119.736  0.00  0.00     0.149 HD
ENDBRANCH   6  13
BRANCH   5  18
ATOM     18  N   LIG d   1      -7.030  95.033 116.362  0.00  0.00     0.381 N 
ATOM     19  H   LIG d   1      -6.181  95.508 116.598  0.00  0.00    -0.090 HD
ATOM     20  H   LIG d   1      -7.800  95.561 116.733  0.00  0.00    -0.090 HD
ATOM     21  H   LIG d   1      -7.113  94.959 115.372  0.00  0.00    -0.090 HD
ENDBRANCH   5  18
BRANCH   3  22
ATOM     22  C   LIG d   1      -7.734  90.362 115.570  0.00  0.00     0.382 C 
ATOM     23  O   LIG d   1      -8.406  90.672 114.556  0.00  0.00    -0.241 OA
ATOM     24  O   LIG d   1      -7.722  89.180 115.960  0.00  0.00    -0.241 OA
ENDBRANCH   3  22
TORSDOF 7
ENDMDL
MODEL 3
REMARK VINA RESULT:      -5.1     18.612     20.175
REMARK  7 active torsions:
REMARK  status: ('A' for Active; 'I' for Inactive)
REMARK    1  A    between atoms: C_2  and  C_3 
REMARK    2  A    between atoms: C_3  and  O_6 
REMARK    3  A    between atoms: C_3  and  C_4 
REMARK    4  A    between atoms: C_7  and  O_6 
REMARK    5  A    between atoms: C_9  and  C_10 
REMARK    6  A    between atoms: N_15  and  C_14 
REMARK    7  A    between atoms: N_20  and  C_19 
REMARK       I    between atoms: C_22  and  N_20 
ROOT
ATOM      1  C   LIG d   1      -6.120  77.665 117.416  0.00  0.00     0.161 C 
ATOM      2  C   LIG d   1      -7.498  77.550 117.664  0.00  0.00     0.016 C 
ATOM      3  C   LIG d   1      -8.329  78.653 117.968  0.00  0.00     0.038 C 
ATOM      4  C   LIG d   1      -7.863  79.975 117.896  0.00  0.00     0.028 C 
ATOM      5  C   LIG d   1      -6.364  80.103 118.144  0.00  0.00    -0.047 C 
ATOM      6  C   LIG d   1      -5.616  79.111 117.223  0.00  0.00     0.091 C 
ENDROOT
BRANCH   1   7
ATOM      7  O   LIG d   1      -5.759  76.854 116.281  0.00  0.00    -0.368 OA
BRANCH   7   8
ATOM      8  C   LIG d   1      -5.130  75.583 116.581  0.00  0.00     0.119 C 
BRANCH   8   9
ATOM      9  C   LIG d   1      -3.664  75.671 116.115  0.00  0.00     0.028 C 
ATOM     10  C   LIG d   1      -3.538  76.145 114.658  0.00  0.00     0.006 C 
ENDBRANCH   8   9
BRANCH   8  11
ATOM     11  C   LIG d   1      -5.749  74.448 115.760  0.00  0.00     0.028 C 
ATOM     12  C   LIG d   1      -6.888  73.729 116.500  0.00  0.00     0.006 C 
ENDBRANCH   8  11
ENDBRANCH   7   8
ENDBRANCH   1   7
BRANCH   6  13
ATOM     13  N   LIG d   1      -4.149  79.111 117.462  0.00  0.00    -0.311 N 
ATOM     14  C   LIG d   1      -3.252  79.372 116.513  0.00  0.00     0.210 C 
ATOM     15  C   LIG d   1      -1.791  79.300 116.967  0.00  0.00     0.109 C 
ATOM     16  O   LIG d   1      -3.529  79.686 115.345  0.00  0.00    -0.276 OA
ATOM     17  H   LIG d   1      -3.838  78.897 118.389  0.00  0.00     0.149 HD
ENDBRANCH   6  13
BRANCH   5  18
ATOM     18  N   LIG d   1      -5.991  81.509 117.903  0.00  0.00     0.381 N 
ATOM     19  H   LIG d   1      -5.073  81.682 118.262  0.00  0.00    -0.090 HD
ATOM     20  H   LIG d   1      -6.637  82.105 118.389  0.00  0.00    -0.090 HD
ATOM     21  H   LIG d   1      -6.016  81.706 116.927  0.00  0.00    -0.090 HD
ENDBRANCH   5  18
BRANCH   3  22
ATOM     22  C   LIG d   1      -9.632  78.437 118.389  0.00  0.00     0.382 C 
ATOM     23  O   LIG d   1      -9.983  77.298 118.781  0.00  0.00    -0.241 OA
ATOM     24  O   LIG d   1     -10.473  79.354 118.338  0.00  0.00    -0.241 OA
ENDBRANCH   3  22
TORSDOF 7
ENDMDL
MODEL 4
REMARK VINA RESULT:      -4.9     33.009     34.168
REMARK  7 active torsions:
REMARK  status: ('A' for Active; 'I' for Inactive)
REMARK    1  A    between atoms: C_2  and  C_3 
REMARK    2  A    between atoms: C_3  and  O_6 
REMARK    3  A    between atoms: C_3  and  C_4 
REMARK    4  A    between atoms: C_7  and  O_6 
REMARK    5  A    between atoms: C_9  and  C_10 
REMARK    6  A    between atoms: N_15  and  C_14 
REMARK    7  A    between atoms: N_20  and  C_19 
REMARK       I    between atoms: C_22  and  N_20 
ROOT
ATOM      1  C   LIG d   1      -5.765  92.995 116.907  0.00  0.00     0.161 C 
ATOM      2  C   LIG d   1      -6.823  92.204 116.428  0.00  0.00     0.016 C 
ATOM      3  C   LIG d   1      -6.683  90.837 116.095  0.00  0.00     0.038 C 
ATOM      4  C   LIG d   1      -5.505  90.125 116.364  0.00  0.00     0.028 C 
ATOM      5  C   LIG d   1      -4.257  91.002 116.376  0.00  0.00    -0.047 C 
ATOM      6  C   LIG d   1      -4.501  92.208 117.311  0.00  0.00     0.091 C 
ENDROOT
BRANCH   1   7
ATOM      7  O   LIG d   1      -6.222  93.809 118.006  0.00  0.00    -0.368 OA
BRANCH   7   8
ATOM      8  C   LIG d   1      -6.115  95.242 117.825  0.00  0.00     0.119 C 
BRANCH   8   9
ATOM      9  C   LIG d   1      -5.742  95.854 119.189  0.00  0.00     0.028 C 
ATOM     10  C   LIG d   1      -4.542  96.812 119.093  0.00  0.00     0.006 C 
ENDBRANCH   8   9
BRANCH   8  11
ATOM     11  C   LIG d   1      -7.468  95.860 117.460  0.00  0.00     0.028 C 
ATOM     12  C   LIG d   1      -8.655  95.097 118.070  0.00  0.00     0.006 C 
ENDBRANCH   8  11
ENDBRANCH   7   8
ENDBRANCH   1   7
BRANCH   6  13
ATOM     13  N   LIG d   1      -3.360  93.161 117.316  0.00  0.00    -0.311 N 
ATOM     14  C   LIG d   1      -2.751  93.570 118.428  0.00  0.00     0.210 C 
ATOM     15  C   LIG d   1      -1.611  94.569 118.210  0.00  0.00     0.109 C 
ATOM     16  O   LIG d   1      -3.025  93.175 119.571  0.00  0.00    -0.276 OA
ATOM     17  H   LIG d   1      -3.052  93.508 116.429  0.00  0.00     0.149 HD
ENDBRANCH   6  13
BRANCH   5  18
ATOM     18  N   LIG d   1      -3.124  90.159 116.804  0.00  0.00     0.381 N 
ATOM     19  H   LIG d   1      -2.830  90.427 117.721  0.00  0.00    -0.090 HD
ATOM     20  H   LIG d   1      -2.357  90.301 116.171  0.00  0.00    -0.090 HD
ATOM     21  H   LIG d   1      -3.393  89.199 116.800  0.00  0.00    -0.090 HD
ENDBRANCH   5  18
BRANCH   3  22
ATOM     22  C   LIG d   1      -7.718  90.178 115.450  0.00  0.00     0.382 C 
ATOM     23  O   LIG d   1      -8.374  90.765 114.555  0.00  0.00    -0.241 OA
ATOM     24  O   LIG d   1      -8.034  89.020 115.781  0.00  0.00    -0.241 OA
ENDBRANCH   3  22
TORSDOF 7
ENDMDL
MODEL 5
REMARK VINA RESULT:      -4.9     19.655     21.088
REMARK  7 active torsions:
REMARK  status: ('A' for Active; 'I' for Inactive)
REMARK    1  A    between atoms: C_2  and  C_3 
REMARK    2  A    between atoms: C_3  and  O_6 
REMARK    3  A    between atoms: C_3  and  C_4 
REMARK    4  A    between atoms: C_7  and  O_6 
REMARK    5  A    between atoms: C_9  and  C_10 
REMARK    6  A    between atoms: N_15  and  C_14 
REMARK    7  A    between atoms: N_20  and  C_19 
REMARK       I    between atoms: C_22  and  N_20 
ROOT
ATOM      1  C   LIG d   1      -9.657  78.434 118.584  0.00  0.00     0.161 C 
ATOM      2  C   LIG d   1      -8.990  79.495 117.949  0.00  0.00     0.016 C 
ATOM      3  C   LIG d   1      -8.419  80.584 118.647  0.00  0.00     0.038 C 
ATOM      4  C   LIG d   1      -8.344  80.610 120.047  0.00  0.00     0.028 C 
ATOM      5  C   LIG d   1      -9.449  79.809 120.728  0.00  0.00    -0.047 C 
ATOM      6  C   LIG d   1      -9.488  78.389 120.117  0.00  0.00     0.091 C 
ENDROOT
BRANCH   1   7
ATOM      7  O   LIG d   1      -9.251  77.181 117.998  0.00  0.00    -0.368 OA
BRANCH   7   8
ATOM      8  C   LIG d   1      -7.873  77.100 117.559  0.00  0.00     0.119 C 
BRANCH   8   9
ATOM      9  C   LIG d   1      -7.848  76.263 116.265  0.00  0.00     0.028 C 
ATOM     10  C   LIG d   1      -6.895  75.060 116.363  0.00  0.00     0.006 C 
ENDBRANCH   8   9
BRANCH   8  11
ATOM     11  C   LIG d   1      -7.015  76.322 118.562  0.00  0.00     0.028 C 
ATOM     12  C   LIG d   1      -6.047  77.224 119.343  0.00  0.00     0.006 C 
ENDBRANCH   8  11
ENDBRANCH   7   8
ENDBRANCH   1   7
BRANCH   6  13
ATOM     13  N   LIG d   1     -10.597  77.566 120.667  0.00  0.00    -0.311 N 
ATOM     14  C   LIG d   1     -10.435  76.320 121.109  0.00  0.00     0.210 C 
ATOM     15  C   LIG d   1     -11.712  75.643 121.617  0.00  0.00     0.109 C 
ATOM     16  O   LIG d   1      -9.349  75.722 121.158  0.00  0.00    -0.276 OA
ATOM     17  H   LIG d   1     -11.506  77.984 120.694  0.00  0.00     0.149 HD
ENDBRANCH   6  13
BRANCH   5  18
ATOM     18  N   LIG d   1      -9.170  79.807 122.176  0.00  0.00     0.381 N 
ATOM     19  H   LIG d   1      -8.255  80.173 122.346  0.00  0.00    -0.090 HD
ATOM     20  H   LIG d   1      -9.199  78.860 122.512  0.00  0.00    -0.090 HD
ATOM     21  H   LIG d   1      -9.849  80.357 122.655  0.00  0.00    -0.090 HD
ENDBRANCH   5  18
BRANCH   3  22
ATOM     22  C   LIG d   1      -7.950  81.682 117.942  0.00  0.00     0.382 C 
ATOM     23  O   LIG d   1      -8.477  81.996 116.847  0.00  0.00    -0.241 OA
ATOM     24  O   LIG d   1      -6.977  82.336 118.365  0.00  0.00    -0.241 OA
ENDBRANCH   3  22
TORSDOF 7
ENDMDL
MODEL 6
REMARK VINA RESULT:      -4.9     19.984     21.587
REMARK  7 active torsions:
REMARK  status: ('A' for Active; 'I' for Inactive)
REMARK    1  A    between atoms: C_2  and  C_3 
REMARK    2  A    between atoms: C_3  and  O_6 
REMARK    3  A    between atoms: C_3  and  C_4 
REMARK    4  A    between atoms: C_7  and  O_6 
REMARK    5  A    between atoms: C_9  and  C_10 
REMARK    6  A    between atoms: N_15  and  C_14 
REMARK    7  A    between atoms: N_20  and  C_19 
REMARK       I    between atoms: C_22  and  N_20 
ROOT
ATOM      1  C   LIG d   1      -9.358  78.786 118.322  0.00  0.00     0.161 C 
ATOM      2  C   LIG d   1      -8.785  77.724 117.604  0.00  0.00     0.016 C 
ATOM      3  C   LIG d   1      -7.433  77.703 117.191  0.00  0.00     0.038 C 
ATOM      4  C   LIG d   1      -6.517  78.682 117.603  0.00  0.00     0.028 C 
ATOM      5  C   LIG d   1      -7.166  80.030 117.904  0.00  0.00    -0.047 C 
ATOM      6  C   LIG d   1      -8.347  79.812 118.876  0.00  0.00     0.091 C 
ENDROOT
BRANCH   1   7
ATOM      7  O   LIG d   1     -10.181  78.269 119.387  0.00  0.00    -0.368 OA
BRANCH   7   8
ATOM      8  C   LIG d   1      -9.480  77.806 120.567  0.00  0.00     0.119 C 
BRANCH   8   9
ATOM      9  C   LIG d   1      -9.800  76.308 120.738  0.00  0.00     0.028 C 
ATOM     10  C   LIG d   1      -8.536  75.459 120.952  0.00  0.00     0.006 C 
ENDBRANCH   8   9
BRANCH   8  11
ATOM     11  C   LIG d   1     -10.014  78.481 121.833  0.00  0.00     0.028 C 
ATOM     12  C   LIG d   1     -11.254  79.349 121.568  0.00  0.00     0.006 C 
ENDBRANCH   8  11
ENDBRANCH   7   8
ENDBRANCH   1   7
BRANCH   6  13
ATOM     13  N   LIG d   1      -9.089  81.068 119.157  0.00  0.00    -0.311 N 
ATOM     14  C   LIG d   1      -8.836  81.851 120.204  0.00  0.00     0.210 C 
ATOM     15  C   LIG d   1      -9.731  83.089 120.318  0.00  0.00     0.109 C 
ATOM     16  O   LIG d   1      -7.933  81.655 121.032  0.00  0.00    -0.276 OA
ATOM     17  H   LIG d   1      -9.818  81.320 118.519  0.00  0.00     0.149 HD
ENDBRANCH   6  13
BRANCH   5  18
ATOM     18  N   LIG d   1      -6.121  80.914 118.453  0.00  0.00     0.381 N 
ATOM     19  H   LIG d   1      -6.307  81.101 119.418  0.00  0.00    -0.090 HD
ATOM     20  H   LIG d   1      -6.138  81.786 117.954  0.00  0.00    -0.090 HD
ATOM     21  H   LIG d   1      -5.226  80.486 118.357  0.00  0.00    -0.090 HD
ENDBRANCH   5  18
BRANCH   3  22
ATOM     22  C   LIG d   1      -6.994  76.714 116.324  0.00  0.00     0.382 C 
ATOM     23  O   LIG d   1      -6.141  76.985 115.445  0.00  0.00    -0.241 OA
ATOM     24  O   LIG d   1      -7.474  75.566 116.381  0.00  0.00    -0.241 OA
ENDBRANCH   3  22
TORSDOF 7
ENDMDL
MODEL 7
REMARK VINA RESULT:      -4.9     31.680     32.632
REMARK  7 active torsions:
REMARK  status: ('A' for Active; 'I' for Inactive)
REMARK    1  A    between atoms: C_2  and  C_3 
REMARK    2  A    between atoms: C_3  and  O_6 
REMARK    3  A    between atoms: C_3  and  C_4 
REMARK    4  A    between atoms: C_7  and  O_6 
REMARK    5  A    between atoms: C_9  and  C_10 
REMARK    6  A    between atoms: N_15  and  C_14 
REMARK    7  A    between atoms: N_20  and  C_19 
REMARK       I    between atoms: C_22  and  N_20 
ROOT
ATOM      1  C   LIG d   1      -4.164  92.176 117.581  0.00  0.00     0.161 C 
ATOM      2  C   LIG d   1      -5.246  93.030 117.311  0.00  0.00     0.016 C 
ATOM      3  C   LIG d   1      -6.253  92.735 116.363  0.00  0.00     0.038 C 
ATOM      4  C   LIG d   1      -6.328  91.488 115.725  0.00  0.00     0.028 C 
ATOM      5  C   LIG d   1      -4.976  90.794 115.592  0.00  0.00    -0.047 C 
ATOM      6  C   LIG d   1      -4.289  90.762 116.976  0.00  0.00     0.091 C 
ENDROOT
BRANCH   1   7
ATOM      7  O   LIG d   1      -3.948  92.095 119.004  0.00  0.00    -0.368 OA
BRANCH   7   8
ATOM      8  C   LIG d   1      -2.764  92.760 119.508  0.00  0.00     0.119 C 
BRANCH   8   9
ATOM      9  C   LIG d   1      -1.870  93.094 118.299  0.00  0.00     0.028 C 
ATOM     10  C   LIG d   1      -0.462  92.489 118.425  0.00  0.00     0.006 C 
ENDBRANCH   8   9
BRANCH   8  11
ATOM     11  C   LIG d   1      -1.928  91.821 120.384  0.00  0.00     0.028 C 
ATOM     12  C   LIG d   1      -2.790  90.887 121.248  0.00  0.00     0.006 C 
ENDBRANCH   8  11
ENDBRANCH   7   8
ENDBRANCH   1   7
BRANCH   6  13
ATOM     13  N   LIG d   1      -2.925  90.175 116.918  0.00  0.00    -0.311 N 
ATOM     14  C   LIG d   1      -2.507  89.210 117.735  0.00  0.00     0.210 C 
ATOM     15  C   LIG d   1      -1.059  88.761 117.519  0.00  0.00     0.109 C 
ATOM     16  O   LIG d   1      -3.209  88.660 118.597  0.00  0.00    -0.276 OA
ATOM     17  H   LIG d   1      -2.300  90.541 116.227  0.00  0.00     0.149 HD
ENDBRANCH   6  13
BRANCH   5  18
ATOM     18  N   LIG d   1      -5.219  89.449 115.036  0.00  0.00     0.381 N 
ATOM     19  H   LIG d   1      -5.258  89.497 114.037  0.00  0.00    -0.090 HD
ATOM     20  H   LIG d   1      -6.106  89.114 115.370  0.00  0.00    -0.090 HD
ATOM     21  H   LIG d   1      -4.494  88.827 115.318  0.00  0.00    -0.090 HD
ENDBRANCH   5  18
BRANCH   3  22
ATOM     22  C   LIG d   1      -7.176  93.709 116.016  0.00  0.00     0.382 C 
ATOM     23  O   LIG d   1      -7.136  94.836 116.566  0.00  0.00    -0.241 OA
ATOM     24  O   LIG d   1      -8.076  93.461 115.191  0.00  0.00    -0.241 OA
ENDBRANCH   3  22
TORSDOF 7
ENDMDL
MODEL 8
REMARK VINA RESULT:      -4.8     32.671     34.008
REMARK  7 active torsions:
REMARK  status: ('A' for Active; 'I' for Inactive)
REMARK    1  A    between atoms: C_2  and  C_3 
REMARK    2  A    between atoms: C_3  and  O_6 
REMARK    3  A    between atoms: C_3  and  C_4 
REMARK    4  A    between atoms: C_7  and  O_6 
REMARK    5  A    between atoms: C_9  and  C_10 
REMARK    6  A    between atoms: N_15  and  C_14 
REMARK    7  A    between atoms: N_20  and  C_19 
REMARK       I    between atoms: C_22  and  N_20 
ROOT
ATOM      1  C   LIG d   1      -6.723  92.411 118.234  0.00  0.00     0.161 C 
ATOM      2  C   LIG d   1      -5.659  93.190 118.716  0.00  0.00     0.016 C 
ATOM      3  C   LIG d   1      -4.325  93.048 118.268  0.00  0.00     0.038 C 
ATOM      4  C   LIG d   1      -3.989  92.214 117.192  0.00  0.00     0.028 C 
ATOM      5  C   LIG d   1      -4.945  91.039 117.015  0.00  0.00    -0.047 C 
ATOM      6  C   LIG d   1      -6.396  91.573 116.980  0.00  0.00     0.091 C 
ENDROOT
BRANCH   1   7
ATOM      7  O   LIG d   1      -7.871  93.248 117.991  0.00  0.00    -0.368 OA
BRANCH   7   8
ATOM      8  C   LIG d   1      -8.901  93.230 119.011  0.00  0.00     0.119 C 
BRANCH   8   9
ATOM      9  C   LIG d   1      -9.311  94.690 119.281  0.00  0.00     0.028 C 
ATOM     10  C   LIG d   1      -8.649  95.676 118.303  0.00  0.00     0.006 C 
ENDBRANCH   8   9
BRANCH   8  11
ATOM     11  C   LIG d   1      -8.356  92.708 120.343  0.00  0.00     0.028 C 
ATOM     12  C   LIG d   1      -9.425  92.659 121.446  0.00  0.00     0.006 C 
ENDBRANCH   8  11
ENDBRANCH   7   8
ENDBRANCH   1   7
BRANCH   6  13
ATOM     13  N   LIG d   1      -7.400  90.481 116.894  0.00  0.00    -0.311 N 
ATOM     14  C   LIG d   1      -7.857  89.995 115.741  0.00  0.00     0.210 C 
ATOM     15  C   LIG d   1      -8.904  88.884 115.878  0.00  0.00     0.109 C 
ATOM     16  O   LIG d   1      -7.472  90.355 114.619  0.00  0.00    -0.276 OA
ATOM     17  H   LIG d   1      -7.744  90.108 117.757  0.00  0.00     0.149 HD
ENDBRANCH   6  13
BRANCH   5  18
ATOM     18  N   LIG d   1      -4.560  90.333 115.778  0.00  0.00     0.381 N 
ATOM     19  H   LIG d   1      -3.921  90.895 115.252  0.00  0.00    -0.090 HD
ATOM     20  H   LIG d   1      -5.382  90.183 115.220  0.00  0.00    -0.090 HD
ATOM     21  H   LIG d   1      -4.137  89.459 116.002  0.00  0.00    -0.090 HD
ENDBRANCH   5  18
BRANCH   3  22
ATOM     22  C   LIG d   1      -3.304  93.716 118.927  0.00  0.00     0.382 C 
ATOM     23  O   LIG d   1      -2.956  93.351 120.076  0.00  0.00    -0.241 OA
ATOM     24  O   LIG d   1      -2.758  94.706 118.406  0.00  0.00    -0.241 OA
ENDBRANCH   3  22
TORSDOF 7
ENDMDL
MODEL 9
REMARK VINA RESULT:      -4.7     33.188     34.244
REMARK  7 active torsions:
REMARK  status: ('A' for Active; 'I' for Inactive)
REMARK    1  A    between atoms: C_2  and  C_3 
REMARK    2  A    between atoms: C_3  and  O_6 
REMARK    3  A    between atoms: C_3  and  C_4 
REMARK    4  A    between atoms: C_7  and  O_6 
REMARK    5  A    between atoms: C_9  and  C_10 
REMARK    6  A    between atoms: N_15  and  C_14 
REMARK    7  A    between atoms: N_20  and  C_19 
REMARK       I    between atoms: C_22  and  N_20 
ROOT
ATOM      1  C   LIG d   1      -4.591  93.337 117.500  0.00  0.00     0.161 C 
ATOM      2  C   LIG d   1      -4.542  94.561 118.188  0.00  0.00     0.016 C 
ATOM      3  C   LIG d   1      -5.584  95.516 118.153  0.00  0.00     0.038 C 
ATOM      4  C   LIG d   1      -6.818  95.245 117.544  0.00  0.00     0.028 C 
ATOM      5  C   LIG d   1      -6.725  94.228 116.411  0.00  0.00    -0.047 C 
ATOM      6  C   LIG d   1      -5.976  92.976 116.921  0.00  0.00     0.091 C 
ENDROOT
BRANCH   1   7
ATOM      7  O   LIG d   1      -4.112  92.278 118.352  0.00  0.00    -0.368 OA
BRANCH   7   8
ATOM      8  C   LIG d   1      -2.973  91.530 117.859  0.00  0.00     0.119 C 
BRANCH   8   9
ATOM      9  C   LIG d   1      -3.222  90.043 118.180  0.00  0.00     0.028 C 
ATOM     10  C   LIG d   1      -2.114  89.130 117.629  0.00  0.00     0.006 C 
ENDBRANCH   8   9
BRANCH   8  11
ATOM     11  C   LIG d   1      -1.694  91.899 118.616  0.00  0.00     0.028 C 
ATOM     12  C   LIG d   1      -1.964  92.331 120.066  0.00  0.00     0.006 C 
ENDBRANCH   8  11
ENDBRANCH   7   8
ENDBRANCH   1   7
BRANCH   6  13
ATOM     13  N   LIG d   1      -5.766  91.965 115.852  0.00  0.00    -0.311 N 
ATOM     14  C   LIG d   1      -6.147  90.694 115.960  0.00  0.00     0.210 C 
ATOM     15  C   LIG d   1      -5.817  89.815 114.749  0.00  0.00     0.109 C 
ATOM     16  O   LIG d   1      -6.754  90.217 116.931  0.00  0.00    -0.276 OA
ATOM     17  H   LIG d   1      -5.308  92.274 115.017  0.00  0.00     0.149 HD
ENDBRANCH   6  13
BRANCH   5  18
ATOM     18  N   LIG d   1      -8.098  93.936 115.960  0.00  0.00     0.381 N 
ATOM     19  H   LIG d   1      -8.127  93.037 115.522  0.00  0.00    -0.090 HD
ATOM     20  H   LIG d   1      -8.371  94.626 115.282  0.00  0.00    -0.090 HD
ATOM     21  H   LIG d   1      -8.724  93.956 116.735  0.00  0.00    -0.090 HD
ENDBRANCH   5  18
BRANCH   3  22
ATOM     22  C   LIG d   1      -5.381  96.775 118.697  0.00  0.00     0.382 C 
ATOM     23  O   LIG d   1      -4.326  97.406 118.442  0.00  0.00    -0.241 OA
ATOM     24  O   LIG d   1      -6.218  97.270 119.475  0.00  0.00    -0.241 OA
ENDBRANCH   3  22
TORSDOF 7
ENDMDL
