MODEL 1
REMARK VINA RESULT:      -5.5      0.000      0.000
REMARK  7 active torsions:
REMARK  status: ('A' for Active; 'I' for Inactive)
REMARK    1  A    between atoms: C_2  and  C_3 
REMARK    2  A    between atoms: C_3  and  O_6 
REMARK    3  A    between atoms: C_3  and  C_4 
REMARK    4  A    between atoms: C_7  and  O_6 
REMARK    5  A    between atoms: C_9  and  C_10 
REMARK    6  A    between atoms: N_15  and  C_14 
REMARK    7  A    between atoms: N_20  and  C_19 
REMARK       I    between atoms: C_22  and  N_20 
ROOT
ATOM      1  C   LIG d   1       0.047  59.868 118.675  0.00  0.00     0.161 C 
ATOM      2  C   LIG d   1      -1.346  59.698 118.604  0.00  0.00     0.016 C 
ATOM      3  C   LIG d   1      -2.030  59.370 117.412  0.00  0.00     0.038 C 
ATOM      4  C   LIG d   1      -1.347  59.038 116.232  0.00  0.00     0.028 C 
ATOM      5  C   LIG d   1       0.029  59.686 116.126  0.00  0.00    -0.047 C 
ATOM      6  C   LIG d   1       0.820  59.401 117.423  0.00  0.00     0.091 C 
ENDROOT
BRANCH   1   7
ATOM      7  O   LIG d   1       0.560  59.214 119.853  0.00  0.00    -0.368 OA
BRANCH   7   8
ATOM      8  C   LIG d   1       0.956  60.083 120.942  0.00  0.00     0.119 C 
BRANCH   8   9
ATOM      9  C   LIG d   1       2.361  59.644 121.397  0.00  0.00     0.028 C 
ATOM     10  C   LIG d   1       3.377  60.798 121.362  0.00  0.00     0.006 C 
ENDBRANCH   8   9
BRANCH   8  11
ATOM     11  C   LIG d   1       0.055  59.890 122.166  0.00  0.00     0.028 C 
ATOM     12  C   LIG d   1      -1.070  60.934 122.248  0.00  0.00     0.006 C 
ENDBRANCH   8  11
ENDBRANCH   7   8
ENDBRANCH   1   7
BRANCH   6  13
ATOM     13  N   LIG d   1       2.146  60.071 117.438  0.00  0.00    -0.311 N 
ATOM     14  C   LIG d   1       3.268  59.467 117.825  0.00  0.00     0.210 C 
ATOM     15  C   LIG d   1       4.523  60.344 117.782  0.00  0.00     0.109 C 
ATOM     16  O   LIG d   1       3.349  58.278 118.170  0.00  0.00    -0.276 OA
ATOM     17  H   LIG d   1       2.177  61.027 117.144  0.00  0.00     0.149 HD
ENDBRANCH   6  13
BRANCH   5  18
ATOM     18  N   LIG d   1       0.684  59.147 114.919  0.00  0.00     0.381 N 
ATOM     19  H   LIG d   1       1.670  59.078 115.072  0.00  0.00    -0.090 HD
ATOM     20  H   LIG d   1       0.526  59.779 114.154  0.00  0.00    -0.090 HD
ATOM     21  H   LIG d   1       0.311  58.250 114.701  0.00  0.00    -0.090 HD
ENDBRANCH   5  18
BRANCH   3  22
ATOM     22  C   LIG d   1      -3.416  59.410 117.381  0.00  0.00     0.382 C 
ATOM     23  O   LIG d   1      -4.080  58.415 117.760  0.00  0.00    -0.241 OA
ATOM     24  O   LIG d   1      -4.009  60.412 116.939  0.00  0.00    -0.241 OA
ENDBRANCH   3  22
TORSDOF 7
ENDMDL
MODEL 2
REMARK VINA RESULT:      -5.4     32.981     34.179
REMARK  7 active torsions:
REMARK  status: ('A' for Active; 'I' for Inactive)
REMARK    1  A    between atoms: C_2  and  C_3 
REMARK    2  A    between atoms: C_3  and  O_6 
REMARK    3  A    between atoms: C_3  and  C_4 
REMARK    4  A    between atoms: C_7  and  O_6 
REMARK    5  A    between atoms: C_9  and  C_10 
REMARK    6  A    between atoms: N_15  and  C_14 
REMARK    7  A    between atoms: N_20  and  C_19 
REMARK       I    between atoms: C_22  and  N_20 
ROOT
ATOM      1  C   LIG d   1      -5.694  92.587 118.099  0.00  0.00     0.161 C 
ATOM      2  C   LIG d   1      -5.696  91.590 117.109  0.00  0.00     0.016 C 
ATOM      3  C   LIG d   1      -6.732  91.439 116.159  0.00  0.00     0.038 C 
ATOM      4  C   LIG d   1      -7.770  92.374 116.039  0.00  0.00     0.028 C 
ATOM      5  C   LIG d   1      -8.078  93.109 117.340  0.00  0.00    -0.047 C 
ATOM      6  C   LIG d   1      -6.763  93.684 117.914  0.00  0.00     0.091 C 
ENDROOT
BRANCH   1   7
ATOM      7  O   LIG d   1      -4.383  93.176 118.197  0.00  0.00    -0.368 OA
BRANCH   7   8
ATOM      8  C   LIG d   1      -3.565  92.730 119.307  0.00  0.00     0.119 C 
BRANCH   8   9
ATOM      9  C   LIG d   1      -3.457  93.902 120.302  0.00  0.00     0.028 C 
ATOM     10  C   LIG d   1      -4.299  93.676 121.569  0.00  0.00     0.006 C 
ENDBRANCH   8   9
BRANCH   8  11
ATOM     11  C   LIG d   1      -2.128  92.443 118.861  0.00  0.00     0.028 C 
ATOM     12  C   LIG d   1      -1.084  93.226 119.673  0.00  0.00     0.006 C 
ENDBRANCH   8  11
ENDBRANCH   7   8
ENDBRANCH   1   7
BRANCH   6  13
ATOM     13  N   LIG d   1      -6.961  94.346 119.230  0.00  0.00    -0.311 N 
ATOM     14  C   LIG d   1      -7.187  95.652 119.367  0.00  0.00     0.210 C 
ATOM     15  C   LIG d   1      -7.343  96.132 120.813  0.00  0.00     0.109 C 
ATOM     16  O   LIG d   1      -7.305  96.452 118.427  0.00  0.00    -0.276 OA
ATOM     17  H   LIG d   1      -6.912  93.766 120.044  0.00  0.00     0.149 HD
ENDBRANCH   6  13
BRANCH   5  18
ATOM     18  N   LIG d   1      -9.081  94.147 117.039  0.00  0.00     0.381 N 
ATOM     19  H   LIG d   1      -8.624  95.020 116.865  0.00  0.00    -0.090 HD
ATOM     20  H   LIG d   1      -9.681  94.260 117.837  0.00  0.00    -0.090 HD
ATOM     21  H   LIG d   1      -9.619  93.881 116.244  0.00  0.00    -0.090 HD
ENDBRANCH   5  18
BRANCH   3  22
ATOM     22  C   LIG d   1      -6.757  90.319 115.342  0.00  0.00     0.382 C 
ATOM     23  O   LIG d   1      -7.849  89.894 114.894  0.00  0.00    -0.241 OA
ATOM     24  O   LIG d   1      -5.706  89.702 115.083  0.00  0.00    -0.241 OA
ENDBRANCH   3  22
TORSDOF 7
ENDMDL
MODEL 3
REMARK VINA RESULT:      -5.3     32.528     33.686
REMARK  7 active torsions:
REMARK  status: ('A' for Active; 'I' for Inactive)
REMARK    1  A    between atoms: C_2  and  C_3 
REMARK    2  A    between atoms: C_3  and  O_6 
REMARK    3  A    between atoms: C_3  and  C_4 
REMARK    4  A    between atoms: C_7  and  O_6 
REMARK    5  A    between atoms: C_9  and  C_10 
REMARK    6  A    between atoms: N_15  and  C_14 
REMARK    7  A    between atoms: N_20  and  C_19 
REMARK       I    between atoms: C_22  and  N_20 
ROOT
ATOM      1  C   LIG d   1      -5.439  92.178 118.421  0.00  0.00     0.161 C 
ATOM      2  C   LIG d   1      -5.936  91.400 117.362  0.00  0.00     0.016 C 
ATOM      3  C   LIG d   1      -6.953  91.839 116.483  0.00  0.00     0.038 C 
ATOM      4  C   LIG d   1      -7.440  93.154 116.513  0.00  0.00     0.028 C 
ATOM      5  C   LIG d   1      -7.330  93.811 117.884  0.00  0.00    -0.047 C 
ATOM      6  C   LIG d   1      -5.881  93.656 118.399  0.00  0.00     0.091 C 
ENDROOT
BRANCH   1   7
ATOM      7  O   LIG d   1      -4.002  92.084 118.464  0.00  0.00    -0.368 OA
BRANCH   7   8
ATOM      8  C   LIG d   1      -3.453  91.137 119.413  0.00  0.00     0.119 C 
BRANCH   8   9
ATOM      9  C   LIG d   1      -2.888  91.943 120.598  0.00  0.00     0.028 C 
ATOM     10  C   LIG d   1      -2.195  93.240 120.149  0.00  0.00     0.006 C 
ENDBRANCH   8   9
BRANCH   8  11
ATOM     11  C   LIG d   1      -2.253  90.390 118.823  0.00  0.00     0.028 C 
ATOM     12  C   LIG d   1      -2.665  89.177 117.973  0.00  0.00     0.006 C 
ENDBRANCH   8  11
ENDBRANCH   7   8
ENDBRANCH   1   7
BRANCH   6  13
ATOM     13  N   LIG d   1      -5.706  94.198 119.772  0.00  0.00    -0.311 N 
ATOM     14  C   LIG d   1      -5.320  95.447 120.024  0.00  0.00     0.210 C 
ATOM     15  C   LIG d   1      -5.183  95.795 121.510  0.00  0.00     0.109 C 
ATOM     16  O   LIG d   1      -5.109  96.310 119.159  0.00  0.00    -0.276 OA
ATOM     17  H   LIG d   1      -5.887  93.574 120.535  0.00  0.00     0.149 HD
ENDBRANCH   6  13
BRANCH   5  18
ATOM     18  N   LIG d   1      -7.744  95.219 117.739  0.00  0.00     0.381 N 
ATOM     19  H   LIG d   1      -8.504  95.415 118.360  0.00  0.00    -0.090 HD
ATOM     20  H   LIG d   1      -8.061  95.369 116.797  0.00  0.00    -0.090 HD
ATOM     21  H   LIG d   1      -6.977  95.823 117.940  0.00  0.00    -0.090 HD
ENDBRANCH   5  18
BRANCH   3  22
ATOM     22  C   LIG d   1      -7.522  90.946 115.589  0.00  0.00     0.382 C 
ATOM     23  O   LIG d   1      -7.014  89.809 115.429  0.00  0.00    -0.241 OA
ATOM     24  O   LIG d   1      -8.509  91.277 114.906  0.00  0.00    -0.241 OA
ENDBRANCH   3  22
TORSDOF 7
ENDMDL
MODEL 4
REMARK VINA RESULT:      -5.3     17.558     18.543
REMARK  7 active torsions:
REMARK  status: ('A' for Active; 'I' for Inactive)
REMARK    1  A    between atoms: C_2  and  C_3 
REMARK    2  A    between atoms: C_3  and  O_6 
REMARK    3  A    between atoms: C_3  and  C_4 
REMARK    4  A    between atoms: C_7  and  O_6 
REMARK    5  A    between atoms: C_9  and  C_10 
REMARK    6  A    between atoms: N_15  and  C_14 
REMARK    7  A    between atoms: N_20  and  C_19 
REMARK       I    between atoms: C_22  and  N_20 
ROOT
ATOM      1  C   LIG d   1      -6.680  77.163 116.806  0.00  0.00     0.161 C 
ATOM      2  C   LIG d   1      -8.030  76.968 117.141  0.00  0.00     0.016 C 
ATOM      3  C   LIG d   1      -8.654  75.699 117.150  0.00  0.00     0.038 C 
ATOM      4  C   LIG d   1      -7.926  74.514 116.971  0.00  0.00     0.028 C 
ATOM      5  C   LIG d   1      -6.665  74.698 116.133  0.00  0.00    -0.047 C 
ATOM      6  C   LIG d   1      -5.843  75.870 116.716  0.00  0.00     0.091 C 
ENDROOT
BRANCH   1   7
ATOM      7  O   LIG d   1      -6.075  78.087 117.732  0.00  0.00    -0.368 OA
BRANCH   7   8
ATOM      8  C   LIG d   1      -5.622  79.345 117.173  0.00  0.00     0.119 C 
BRANCH   8   9
ATOM      9  C   LIG d   1      -4.099  79.426 117.392  0.00  0.00     0.028 C 
ATOM     10  C   LIG d   1      -3.626  78.545 118.561  0.00  0.00     0.006 C 
ENDBRANCH   8   9
BRANCH   8  11
ATOM     11  C   LIG d   1      -6.206  80.537 117.936  0.00  0.00     0.028 C 
ATOM     12  C   LIG d   1      -7.716  80.708 117.709  0.00  0.00     0.006 C 
ENDBRANCH   8  11
ENDBRANCH   7   8
ENDBRANCH   1   7
BRANCH   6  13
ATOM     13  N   LIG d   1      -4.634  76.172 115.905  0.00  0.00    -0.311 N 
ATOM     14  C   LIG d   1      -3.429  75.670 116.170  0.00  0.00     0.210 C 
ATOM     15  C   LIG d   1      -2.316  76.125 115.221  0.00  0.00     0.109 C 
ATOM     16  O   LIG d   1      -3.183  74.865 117.081  0.00  0.00    -0.276 OA
ATOM     17  H   LIG d   1      -4.750  76.792 115.127  0.00  0.00     0.149 HD
ENDBRANCH   6  13
BRANCH   5  18
ATOM     18  N   LIG d   1      -5.934  73.417 116.142  0.00  0.00     0.381 N 
ATOM     19  H   LIG d   1      -5.072  73.522 116.640  0.00  0.00    -0.090 HD
ATOM     20  H   LIG d   1      -5.721  73.158 115.195  0.00  0.00    -0.090 HD
ATOM     21  H   LIG d   1      -6.489  72.710 116.570  0.00  0.00    -0.090 HD
ENDBRANCH   5  18
BRANCH   3  22
ATOM     22  C   LIG d   1     -10.030  75.611 117.302  0.00  0.00     0.382 C 
ATOM     23  O   LIG d   1     -10.641  76.469 117.983  0.00  0.00    -0.241 OA
ATOM     24  O   LIG d   1     -10.661  74.660 116.803  0.00  0.00    -0.241 OA
ENDBRANCH   3  22
TORSDOF 7
ENDMDL
MODEL 5
REMARK VINA RESULT:      -5.2     17.619     18.678
REMARK  7 active torsions:
REMARK  status: ('A' for Active; 'I' for Inactive)
REMARK    1  A    between atoms: C_2  and  C_3 
REMARK    2  A    between atoms: C_3  and  O_6 
REMARK    3  A    between atoms: C_3  and  C_4 
REMARK    4  A    between atoms: C_7  and  O_6 
REMARK    5  A    between atoms: C_9  and  C_10 
REMARK    6  A    between atoms: N_15  and  C_14 
REMARK    7  A    between atoms: N_20  and  C_19 
REMARK       I    between atoms: C_22  and  N_20 
ROOT
ATOM      1  C   LIG d   1      -6.616  77.216 116.816  0.00  0.00     0.161 C 
ATOM      2  C   LIG d   1      -7.966  77.034 117.158  0.00  0.00     0.016 C 
ATOM      3  C   LIG d   1      -8.603  75.771 117.169  0.00  0.00     0.038 C 
ATOM      4  C   LIG d   1      -7.888  74.579 116.983  0.00  0.00     0.028 C 
ATOM      5  C   LIG d   1      -6.630  74.752 116.139  0.00  0.00    -0.047 C 
ATOM      6  C   LIG d   1      -5.792  75.915 116.719  0.00  0.00     0.091 C 
ENDROOT
BRANCH   1   7
ATOM      7  O   LIG d   1      -5.997  78.133 117.740  0.00  0.00    -0.368 OA
BRANCH   7   8
ATOM      8  C   LIG d   1      -6.854  79.170 118.279  0.00  0.00     0.119 C 
BRANCH   8   9
ATOM      9  C   LIG d   1      -6.420  80.505 117.643  0.00  0.00     0.028 C 
ATOM     10  C   LIG d   1      -7.566  81.530 117.593  0.00  0.00     0.006 C 
ENDBRANCH   8   9
BRANCH   8  11
ATOM     11  C   LIG d   1      -6.634  79.347 119.784  0.00  0.00     0.028 C 
ATOM     12  C   LIG d   1      -5.962  78.128 120.436  0.00  0.00     0.006 C 
ENDBRANCH   8  11
ENDBRANCH   7   8
ENDBRANCH   1   7
BRANCH   6  13
ATOM     13  N   LIG d   1      -4.585  76.207 115.902  0.00  0.00    -0.311 N 
ATOM     14  C   LIG d   1      -3.390  75.673 116.144  0.00  0.00     0.210 C 
ATOM     15  C   LIG d   1      -2.276  76.123 115.193  0.00  0.00     0.109 C 
ATOM     16  O   LIG d   1      -3.152  74.844 117.036  0.00  0.00    -0.276 OA
ATOM     17  H   LIG d   1      -4.695  76.845 115.138  0.00  0.00     0.149 HD
ENDBRANCH   6  13
BRANCH   5  18
ATOM     18  N   LIG d   1      -5.910  73.464 116.141  0.00  0.00     0.381 N 
ATOM     19  H   LIG d   1      -6.566  72.710 116.101  0.00  0.00    -0.090 HD
ATOM     20  H   LIG d   1      -5.389  73.384 116.996  0.00  0.00    -0.090 HD
ATOM     21  H   LIG d   1      -5.292  73.418 115.361  0.00  0.00    -0.090 HD
ENDBRANCH   5  18
BRANCH   3  22
ATOM     22  C   LIG d   1      -9.978  75.696 117.328  0.00  0.00     0.382 C 
ATOM     23  O   LIG d   1     -10.574  76.542 118.038  0.00  0.00    -0.241 OA
ATOM     24  O   LIG d   1     -10.625  74.768 116.807  0.00  0.00    -0.241 OA
ENDBRANCH   3  22
TORSDOF 7
ENDMDL
MODEL 6
REMARK VINA RESULT:      -5.1     32.739     33.944
REMARK  7 active torsions:
REMARK  status: ('A' for Active; 'I' for Inactive)
REMARK    1  A    between atoms: C_2  and  C_3 
REMARK    2  A    between atoms: C_3  and  O_6 
REMARK    3  A    between atoms: C_3  and  C_4 
REMARK    4  A    between atoms: C_7  and  O_6 
REMARK    5  A    between atoms: C_9  and  C_10 
REMARK    6  A    between atoms: N_15  and  C_14 
REMARK    7  A    between atoms: N_20  and  C_19 
REMARK       I    between atoms: C_22  and  N_20 
ROOT
ATOM      1  C   LIG d   1      -5.194  93.029 118.321  0.00  0.00     0.161 C 
ATOM      2  C   LIG d   1      -5.335  94.110 119.207  0.00  0.00     0.016 C 
ATOM      3  C   LIG d   1      -6.498  94.911 119.280  0.00  0.00     0.038 C 
ATOM      4  C   LIG d   1      -7.666  94.588 118.572  0.00  0.00     0.028 C 
ATOM      5  C   LIG d   1      -7.400  93.804 117.291  0.00  0.00    -0.047 C 
ATOM      6  C   LIG d   1      -6.498  92.593 117.621  0.00  0.00     0.091 C 
ENDROOT
BRANCH   1   7
ATOM      7  O   LIG d   1      -4.596  91.911 119.006  0.00  0.00    -0.368 OA
BRANCH   7   8
ATOM      8  C   LIG d   1      -3.301  91.483 118.518  0.00  0.00     0.119 C 
BRANCH   8   9
ATOM      9  C   LIG d   1      -3.101  90.019 118.955  0.00  0.00     0.028 C 
ATOM     10  C   LIG d   1      -2.756  89.096 117.774  0.00  0.00     0.006 C 
ENDBRANCH   8   9
BRANCH   8  11
ATOM     11  C   LIG d   1      -2.167  92.265 119.188  0.00  0.00     0.028 C 
ATOM     12  C   LIG d   1      -0.919  92.385 118.298  0.00  0.00     0.006 C 
ENDBRANCH   8  11
ENDBRANCH   7   8
ENDBRANCH   1   7
BRANCH   6  13
ATOM     13  N   LIG d   1      -6.121  91.820 116.409  0.00  0.00    -0.311 N 
ATOM     14  C   LIG d   1      -6.811  90.771 115.965  0.00  0.00     0.210 C 
ATOM     15  C   LIG d   1      -6.238  90.105 114.709  0.00  0.00     0.109 C 
ATOM     16  O   LIG d   1      -7.860  90.347 116.473  0.00  0.00    -0.276 OA
ATOM     17  H   LIG d   1      -5.300  92.115 115.917  0.00  0.00     0.149 HD
ENDBRANCH   6  13
BRANCH   5  18
ATOM     18  N   LIG d   1      -8.707  93.416 116.728  0.00  0.00     0.381 N 
ATOM     19  H   LIG d   1      -9.153  94.215 116.323  0.00  0.00    -0.090 HD
ATOM     20  H   LIG d   1      -9.291  93.071 117.469  0.00  0.00    -0.090 HD
ATOM     21  H   LIG d   1      -8.584  92.710 116.036  0.00  0.00    -0.090 HD
ENDBRANCH   5  18
BRANCH   3  22
ATOM     22  C   LIG d   1      -6.487  96.072 120.037  0.00  0.00     0.382 C 
ATOM     23  O   LIG d   1      -7.062  97.103 119.613  0.00  0.00    -0.241 OA
ATOM     24  O   LIG d   1      -5.872  96.114 121.120  0.00  0.00    -0.241 OA
ENDBRANCH   3  22
TORSDOF 7
ENDMDL
MODEL 7
REMARK VINA RESULT:      -5.0      2.186      5.340
REMARK  7 active torsions:
REMARK  status: ('A' for Active; 'I' for Inactive)
REMARK    1  A    between atoms: C_2  and  C_3 
REMARK    2  A    between atoms: C_3  and  O_6 
REMARK    3  A    between atoms: C_3  and  C_4 
REMARK    4  A    between atoms: C_7  and  O_6 
REMARK    5  A    between atoms: C_9  and  C_10 
REMARK    6  A    between atoms: N_15  and  C_14 
REMARK    7  A    between atoms: N_20  and  C_19 
REMARK       I    between atoms: C_22  and  N_20 
ROOT
ATOM      1  C   LIG d   1       0.753  59.683 119.716  0.00  0.00     0.161 C 
ATOM      2  C   LIG d   1       1.614  60.159 120.718  0.00  0.00     0.016 C 
ATOM      3  C   LIG d   1       2.994  60.389 120.514  0.00  0.00     0.038 C 
ATOM      4  C   LIG d   1       3.580  60.300 119.243  0.00  0.00     0.028 C 
ATOM      5  C   LIG d   1       2.857  59.336 118.308  0.00  0.00    -0.047 C 
ATOM      6  C   LIG d   1       1.352  59.686 118.293  0.00  0.00     0.091 C 
ENDROOT
BRANCH   1   7
ATOM      7  O   LIG d   1      -0.483  60.423 119.740  0.00  0.00    -0.368 OA
BRANCH   7   8
ATOM      8  C   LIG d   1      -1.699  59.636 119.704  0.00  0.00     0.119 C 
BRANCH   8   9
ATOM      9  C   LIG d   1      -2.639  60.284 118.669  0.00  0.00     0.028 C 
ATOM     10  C   LIG d   1      -3.387  59.241 117.821  0.00  0.00     0.006 C 
ENDBRANCH   8   9
BRANCH   8  11
ATOM     11  C   LIG d   1      -2.451  59.708 121.036  0.00  0.00     0.028 C 
ATOM     12  C   LIG d   1      -3.113  58.376 121.420  0.00  0.00     0.006 C 
ENDBRANCH   8  11
ENDBRANCH   7   8
ENDBRANCH   1   7
BRANCH   6  13
ATOM     13  N   LIG d   1       0.558  58.738 117.469  0.00  0.00    -0.311 N 
ATOM     14  C   LIG d   1       0.032  59.057 116.287  0.00  0.00     0.210 C 
ATOM     15  C   LIG d   1      -0.768  57.938 115.612  0.00  0.00     0.109 C 
ATOM     16  O   LIG d   1       0.179  60.149 115.719  0.00  0.00    -0.276 OA
ATOM     17  H   LIG d   1       0.415  57.819 117.840  0.00  0.00     0.149 HD
ENDBRANCH   6  13
BRANCH   5  18
ATOM     18  N   LIG d   1       3.489  59.445 116.980  0.00  0.00     0.381 N 
ATOM     19  H   LIG d   1       2.873  59.081 116.281  0.00  0.00    -0.090 HD
ATOM     20  H   LIG d   1       4.331  58.896 116.974  0.00  0.00    -0.090 HD
ATOM     21  H   LIG d   1       3.704  60.397 116.781  0.00  0.00    -0.090 HD
ENDBRANCH   5  18
BRANCH   3  22
ATOM     22  C   LIG d   1       3.811  60.673 121.598  0.00  0.00     0.382 C 
ATOM     23  O   LIG d   1       4.976  60.211 121.642  0.00  0.00    -0.241 OA
ATOM     24  O   LIG d   1       3.382  61.349 122.552  0.00  0.00    -0.241 OA
ENDBRANCH   3  22
TORSDOF 7
ENDMDL
MODEL 8
REMARK VINA RESULT:      -4.9     18.400     19.729
REMARK  7 active torsions:
REMARK  status: ('A' for Active; 'I' for Inactive)
REMARK    1  A    between atoms: C_2  and  C_3 
REMARK    2  A    between atoms: C_3  and  O_6 
REMARK    3  A    between atoms: C_3  and  C_4 
REMARK    4  A    between atoms: C_7  and  O_6 
REMARK    5  A    between atoms: C_9  and  C_10 
REMARK    6  A    between atoms: N_15  and  C_14 
REMARK    7  A    between atoms: N_20  and  C_19 
REMARK       I    between atoms: C_22  and  N_20 
ROOT
ATOM      1  C   LIG d   1      -5.990  77.938 116.881  0.00  0.00     0.161 C 
ATOM      2  C   LIG d   1      -6.791  79.084 117.015  0.00  0.00     0.016 C 
ATOM      3  C   LIG d   1      -6.410  80.216 117.772  0.00  0.00     0.038 C 
ATOM      4  C   LIG d   1      -5.127  80.339 118.327  0.00  0.00     0.028 C 
ATOM      5  C   LIG d   1      -4.473  78.998 118.642  0.00  0.00    -0.047 C 
ATOM      6  C   LIG d   1      -4.541  78.099 117.387  0.00  0.00     0.091 C 
ENDROOT
BRANCH   1   7
ATOM      7  O   LIG d   1      -5.995  77.496 115.509  0.00  0.00    -0.368 OA
BRANCH   7   8
ATOM      8  C   LIG d   1      -6.740  76.284 115.233  0.00  0.00     0.119 C 
BRANCH   8   9
ATOM      9  C   LIG d   1      -7.238  75.729 116.582  0.00  0.00     0.028 C 
ATOM     10  C   LIG d   1      -8.770  75.607 116.637  0.00  0.00     0.006 C 
ENDBRANCH   8   9
BRANCH   8  11
ATOM     11  C   LIG d   1      -5.834  75.192 114.656  0.00  0.00     0.028 C 
ATOM     12  C   LIG d   1      -5.761  73.944 115.549  0.00  0.00     0.006 C 
ENDBRANCH   8  11
ENDBRANCH   7   8
ENDBRANCH   1   7
BRANCH   6  13
ATOM     13  N   LIG d   1      -3.998  76.738 117.635  0.00  0.00    -0.311 N 
ATOM     14  C   LIG d   1      -3.035  76.187 116.898  0.00  0.00     0.210 C 
ATOM     15  C   LIG d   1      -2.635  74.768 117.311  0.00  0.00     0.109 C 
ATOM     16  O   LIG d   1      -2.451  76.753 115.961  0.00  0.00    -0.276 OA
ATOM     17  H   LIG d   1      -4.393  76.220 118.396  0.00  0.00     0.149 HD
ENDBRANCH   6  13
BRANCH   5  18
ATOM     18  N   LIG d   1      -3.092  79.270 119.084  0.00  0.00     0.381 N 
ATOM     19  H   LIG d   1      -2.536  79.555 118.303  0.00  0.00    -0.090 HD
ATOM     20  H   LIG d   1      -2.698  78.425 119.459  0.00  0.00    -0.090 HD
ATOM     21  H   LIG d   1      -3.090  79.983 119.780  0.00  0.00    -0.090 HD
ENDBRANCH   5  18
BRANCH   3  22
ATOM     22  C   LIG d   1      -7.332  81.223 118.014  0.00  0.00     0.382 C 
ATOM     23  O   LIG d   1      -7.971  81.730 117.061  0.00  0.00    -0.241 OA
ATOM     24  O   LIG d   1      -7.500  81.662 119.167  0.00  0.00    -0.241 OA
ENDBRANCH   3  22
TORSDOF 7
ENDMDL
MODEL 9
REMARK VINA RESULT:      -4.9      2.544      6.163
REMARK  7 active torsions:
REMARK  status: ('A' for Active; 'I' for Inactive)
REMARK    1  A    between atoms: C_2  and  C_3 
REMARK    2  A    between atoms: C_3  and  O_6 
REMARK    3  A    between atoms: C_3  and  C_4 
REMARK    4  A    between atoms: C_7  and  O_6 
REMARK    5  A    between atoms: C_9  and  C_10 
REMARK    6  A    between atoms: N_15  and  C_14 
REMARK    7  A    between atoms: N_20  and  C_19 
REMARK       I    between atoms: C_22  and  N_20 
ROOT
ATOM      1  C   LIG d   1       0.066  59.229 118.614  0.00  0.00     0.161 C 
ATOM      2  C   LIG d   1       1.296  59.419 117.962  0.00  0.00     0.016 C 
ATOM      3  C   LIG d   1       2.497  59.728 118.641  0.00  0.00     0.038 C 
ATOM      4  C   LIG d   1       2.579  59.720 120.042  0.00  0.00     0.028 C 
ATOM      5  C   LIG d   1       1.254  60.031 120.729  0.00  0.00    -0.047 C 
ATOM      6  C   LIG d   1       0.159  59.107 120.149  0.00  0.00     0.091 C 
ENDROOT
BRANCH   1   7
ATOM      7  O   LIG d   1      -0.609  58.082 118.060  0.00  0.00    -0.368 OA
BRANCH   7   8
ATOM      8  C   LIG d   1      -1.534  58.348 116.977  0.00  0.00     0.119 C 
BRANCH   8   9
ATOM      9  C   LIG d   1      -2.953  58.377 117.578  0.00  0.00     0.028 C 
ATOM     10  C   LIG d   1      -3.583  59.779 117.528  0.00  0.00     0.006 C 
ENDBRANCH   8   9
BRANCH   8  11
ATOM     11  C   LIG d   1      -1.547  57.202 115.961  0.00  0.00     0.028 C 
ATOM     12  C   LIG d   1      -0.456  56.154 116.231  0.00  0.00     0.006 C 
ENDBRANCH   8  11
ENDBRANCH   7   8
ENDBRANCH   1   7
BRANCH   6  13
ATOM     13  N   LIG d   1      -1.186  59.403 120.707  0.00  0.00    -0.311 N 
ATOM     14  C   LIG d   1      -2.017  58.463 121.154  0.00  0.00     0.210 C 
ATOM     15  C   LIG d   1      -3.363  58.982 121.669  0.00  0.00     0.109 C 
ATOM     16  O   LIG d   1      -1.755  57.252 121.203  0.00  0.00    -0.276 OA
ATOM     17  H   LIG d   1      -1.468  60.363 120.733  0.00  0.00     0.149 HD
ENDBRANCH   6  13
BRANCH   5  18
ATOM     18  N   LIG d   1       1.452  59.854 122.180  0.00  0.00     0.381 N 
ATOM     19  H   LIG d   1       2.427  59.907 122.398  0.00  0.00    -0.090 HD
ATOM     20  H   LIG d   1       1.118  58.944 122.444  0.00  0.00    -0.090 HD
ATOM     21  H   LIG d   1       0.954  60.557 122.680  0.00  0.00    -0.090 HD
ENDBRANCH   5  18
BRANCH   3  22
ATOM     22  C   LIG d   1       3.622  60.089 117.917  0.00  0.00     0.382 C 
ATOM     23  O   LIG d   1       3.748  59.715 116.726  0.00  0.00    -0.241 OA
ATOM     24  O   LIG d   1       4.534  60.748 118.453  0.00  0.00    -0.241 OA
ENDBRANCH   3  22
TORSDOF 7
ENDMDL
