MODEL 1
REMARK VINA RESULT:      -5.4      0.000      0.000
REMARK  7 active torsions:
REMARK  status: ('A' for Active; 'I' for Inactive)
REMARK    1  A    between atoms: C_2  and  C_3 
REMARK    2  A    between atoms: C_3  and  O_6 
REMARK    3  A    between atoms: C_3  and  C_4 
REMARK    4  A    between atoms: C_7  and  O_6 
REMARK    5  A    between atoms: C_9  and  C_10 
REMARK    6  A    between atoms: N_15  and  C_14 
REMARK    7  A    between atoms: N_20  and  C_19 
REMARK       I    between atoms: C_22  and  N_20 
ROOT
ATOM      1  C   LIG d   1      -6.480  93.684 118.083  0.00  0.00     0.161 C 
ATOM      2  C   LIG d   1      -7.099  92.881 117.110  0.00  0.00     0.016 C 
ATOM      3  C   LIG d   1      -6.432  91.845 116.417  0.00  0.00     0.038 C 
ATOM      4  C   LIG d   1      -5.134  91.439 116.761  0.00  0.00     0.028 C 
ATOM      5  C   LIG d   1      -4.299  92.549 117.389  0.00  0.00    -0.047 C 
ATOM      6  C   LIG d   1      -5.098  93.183 118.550  0.00  0.00     0.091 C 
ENDROOT
BRANCH   1   7
ATOM      7  O   LIG d   1      -7.361  93.849 119.212  0.00  0.00    -0.368 OA
BRANCH   7   8
ATOM      8  C   LIG d   1      -7.949  95.164 119.374  0.00  0.00     0.119 C 
BRANCH   8   9
ATOM      9  C   LIG d   1      -9.430  95.063 118.960  0.00  0.00     0.028 C 
ATOM     10  C   LIG d   1     -10.369  94.917 120.169  0.00  0.00     0.006 C 
ENDBRANCH   8   9
BRANCH   8  11
ATOM     11  C   LIG d   1      -7.326  96.176 118.408  0.00  0.00     0.028 C 
ATOM     12  C   LIG d   1      -6.574  97.304 119.131  0.00  0.00     0.006 C 
ENDBRANCH   8  11
ENDBRANCH   7   8
ENDBRANCH   1   7
BRANCH   6  13
ATOM     13  N   LIG d   1      -4.387  94.334 119.166  0.00  0.00    -0.311 N 
ATOM     14  C   LIG d   1      -4.198  94.462 120.478  0.00  0.00     0.210 C 
ATOM     15  C   LIG d   1      -3.458  95.735 120.903  0.00  0.00     0.109 C 
ATOM     16  O   LIG d   1      -4.544  93.627 121.327  0.00  0.00    -0.276 OA
ATOM     17  H   LIG d   1      -4.045  95.043 118.547  0.00  0.00     0.149 HD
ENDBRANCH   6  13
BRANCH   5  18
ATOM     18  N   LIG d   1      -3.021  91.954 117.823  0.00  0.00     0.381 N 
ATOM     19  H   LIG d   1      -2.782  91.190 117.223  0.00  0.00    -0.090 HD
ATOM     20  H   LIG d   1      -3.128  91.599 118.757  0.00  0.00    -0.090 HD
ATOM     21  H   LIG d   1      -2.300  92.641 117.802  0.00  0.00    -0.090 HD
ENDBRANCH   5  18
BRANCH   3  22
ATOM     22  C   LIG d   1      -7.052  91.229 115.340  0.00  0.00     0.382 C 
ATOM     23  O   LIG d   1      -8.050  91.764 114.801  0.00  0.00    -0.241 OA
ATOM     24  O   LIG d   1      -6.652  90.123 114.930  0.00  0.00    -0.241 OA
ENDBRANCH   3  22
TORSDOF 7
ENDMDL
MODEL 2
REMARK VINA RESULT:      -4.9     13.984     16.525
REMARK  7 active torsions:
REMARK  status: ('A' for Active; 'I' for Inactive)
REMARK    1  A    between atoms: C_2  and  C_3 
REMARK    2  A    between atoms: C_3  and  O_6 
REMARK    3  A    between atoms: C_3  and  C_4 
REMARK    4  A    between atoms: C_7  and  O_6 
REMARK    5  A    between atoms: C_9  and  C_10 
REMARK    6  A    between atoms: N_15  and  C_14 
REMARK    7  A    between atoms: N_20  and  C_19 
REMARK       I    between atoms: C_22  and  N_20 
ROOT
ATOM      1  C   LIG d   1      -7.670  77.361 119.485  0.00  0.00     0.161 C 
ATOM      2  C   LIG d   1      -8.842  78.109 119.687  0.00  0.00     0.016 C 
ATOM      3  C   LIG d   1      -8.951  79.485 119.379  0.00  0.00     0.038 C 
ATOM      4  C   LIG d   1      -7.933  80.176 118.704  0.00  0.00     0.028 C 
ATOM      5  C   LIG d   1      -6.545  79.589 118.937  0.00  0.00    -0.047 C 
ATOM      6  C   LIG d   1      -6.586  78.071 118.647  0.00  0.00     0.091 C 
ENDROOT
BRANCH   1   7
ATOM      7  O   LIG d   1      -7.999  76.085 118.902  0.00  0.00    -0.368 OA
BRANCH   7   8
ATOM      8  C   LIG d   1      -8.491  76.114 117.540  0.00  0.00     0.119 C 
BRANCH   8   9
ATOM      9  C   LIG d   1      -9.872  75.430 117.532  0.00  0.00     0.028 C 
ATOM     10  C   LIG d   1      -9.796  73.963 117.076  0.00  0.00     0.006 C 
ENDBRANCH   8   9
BRANCH   8  11
ATOM     11  C   LIG d   1      -7.614  75.269 116.612  0.00  0.00     0.028 C 
ATOM     12  C   LIG d   1      -6.984  76.091 115.476  0.00  0.00     0.006 C 
ENDBRANCH   8  11
ENDBRANCH   7   8
ENDBRANCH   1   7
BRANCH   6  13
ATOM     13  N   LIG d   1      -5.289  77.404 118.931  0.00  0.00    -0.311 N 
ATOM     14  C   LIG d   1      -4.324  77.261 118.025  0.00  0.00     0.210 C 
ATOM     15  C   LIG d   1      -3.075  76.526 118.520  0.00  0.00     0.109 C 
ATOM     16  O   LIG d   1      -4.371  77.701 116.866  0.00  0.00    -0.276 OA
ATOM     17  H   LIG d   1      -5.154  77.045 119.856  0.00  0.00     0.149 HD
ENDBRANCH   6  13
BRANCH   5  18
ATOM     18  N   LIG d   1      -5.602  80.318 118.068  0.00  0.00     0.381 N 
ATOM     19  H   LIG d   1      -5.037  80.931 118.621  0.00  0.00    -0.090 HD
ATOM     20  H   LIG d   1      -6.125  80.875 117.415  0.00  0.00    -0.090 HD
ATOM     21  H   LIG d   1      -5.023  79.673 117.577  0.00  0.00    -0.090 HD
ENDBRANCH   5  18
BRANCH   3  22
ATOM     22  C   LIG d   1     -10.072  80.193 119.784  0.00  0.00     0.382 C 
ATOM     23  O   LIG d   1     -10.723  79.816 120.788  0.00  0.00    -0.241 OA
ATOM     24  O   LIG d   1     -10.465  81.179 119.132  0.00  0.00    -0.241 OA
ENDBRANCH   3  22
TORSDOF 7
ENDMDL
MODEL 3
REMARK VINA RESULT:      -4.8      2.320      4.987
REMARK  7 active torsions:
REMARK  status: ('A' for Active; 'I' for Inactive)
REMARK    1  A    between atoms: C_2  and  C_3 
REMARK    2  A    between atoms: C_3  and  O_6 
REMARK    3  A    between atoms: C_3  and  C_4 
REMARK    4  A    between atoms: C_7  and  O_6 
REMARK    5  A    between atoms: C_9  and  C_10 
REMARK    6  A    between atoms: N_15  and  C_14 
REMARK    7  A    between atoms: N_20  and  C_19 
REMARK       I    between atoms: C_22  and  N_20 
ROOT
ATOM      1  C   LIG d   1      -4.384  92.218 117.956  0.00  0.00     0.161 C 
ATOM      2  C   LIG d   1      -4.988  91.681 116.807  0.00  0.00     0.016 C 
ATOM      3  C   LIG d   1      -6.308  91.990 116.406  0.00  0.00     0.038 C 
ATOM      4  C   LIG d   1      -7.066  92.980 117.048  0.00  0.00     0.028 C 
ATOM      5  C   LIG d   1      -6.685  93.181 118.511  0.00  0.00    -0.047 C 
ATOM      6  C   LIG d   1      -5.155  93.384 118.608  0.00  0.00     0.091 C 
ENDROOT
BRANCH   1   7
ATOM      7  O   LIG d   1      -3.032  92.617 117.656  0.00  0.00    -0.368 OA
BRANCH   7   8
ATOM      8  C   LIG d   1      -1.991  91.978 118.436  0.00  0.00     0.119 C 
BRANCH   8   9
ATOM      9  C   LIG d   1      -0.790  92.942 118.483  0.00  0.00     0.028 C 
ATOM     10  C   LIG d   1       0.355  92.499 117.556  0.00  0.00     0.006 C 
ENDBRANCH   8   9
BRANCH   8  11
ATOM     11  C   LIG d   1      -1.471  90.715 117.743  0.00  0.00     0.028 C 
ATOM     12  C   LIG d   1      -2.078  89.426 118.319  0.00  0.00     0.006 C 
ENDBRANCH   8  11
ENDBRANCH   7   8
ENDBRANCH   1   7
BRANCH   6  13
ATOM     13  N   LIG d   1      -4.687  93.504 120.013  0.00  0.00    -0.311 N 
ATOM     14  C   LIG d   1      -3.881  94.476 120.437  0.00  0.00     0.210 C 
ATOM     15  C   LIG d   1      -3.503  94.402 121.920  0.00  0.00     0.109 C 
ATOM     16  O   LIG d   1      -3.469  95.410 119.734  0.00  0.00    -0.276 OA
ATOM     17  H   LIG d   1      -4.999  92.805 120.659  0.00  0.00     0.149 HD
ENDBRANCH   6  13
BRANCH   5  18
ATOM     18  N   LIG d   1      -7.454  94.332 119.019  0.00  0.00     0.381 N 
ATOM     19  H   LIG d   1      -8.329  94.018 119.389  0.00  0.00    -0.090 HD
ATOM     20  H   LIG d   1      -7.641  94.960 118.256  0.00  0.00    -0.090 HD
ATOM     21  H   LIG d   1      -6.936  94.804 119.727  0.00  0.00    -0.090 HD
ENDBRANCH   5  18
BRANCH   3  22
ATOM     22  C   LIG d   1      -6.898  91.276 115.374  0.00  0.00     0.382 C 
ATOM     23  O   LIG d   1      -6.342  90.242 114.930  0.00  0.00    -0.241 OA
ATOM     24  O   LIG d   1      -7.955  91.677 114.851  0.00  0.00    -0.241 OA
ENDBRANCH   3  22
TORSDOF 7
ENDMDL
MODEL 4
REMARK VINA RESULT:      -4.7     12.131     14.149
REMARK  7 active torsions:
REMARK  status: ('A' for Active; 'I' for Inactive)
REMARK    1  A    between atoms: C_2  and  C_3 
REMARK    2  A    between atoms: C_3  and  O_6 
REMARK    3  A    between atoms: C_3  and  C_4 
REMARK    4  A    between atoms: C_7  and  O_6 
REMARK    5  A    between atoms: C_9  and  C_10 
REMARK    6  A    between atoms: N_15  and  C_14 
REMARK    7  A    between atoms: N_20  and  C_19 
REMARK       I    between atoms: C_22  and  N_20 
ROOT
ATOM      1  C   LIG d   1      -7.121  80.394 119.149  0.00  0.00     0.161 C 
ATOM      2  C   LIG d   1      -5.882  80.352 118.487  0.00  0.00     0.016 C 
ATOM      3  C   LIG d   1      -5.307  79.161 117.987  0.00  0.00     0.038 C 
ATOM      4  C   LIG d   1      -6.007  77.945 117.982  0.00  0.00     0.028 C 
ATOM      5  C   LIG d   1      -7.048  77.840 119.091  0.00  0.00    -0.047 C 
ATOM      6  C   LIG d   1      -7.949  79.095 119.054  0.00  0.00     0.091 C 
ENDROOT
BRANCH   1   7
ATOM      7  O   LIG d   1      -7.891  81.515 118.674  0.00  0.00    -0.368 OA
BRANCH   7   8
ATOM      8  C   LIG d   1      -8.291  82.483 119.674  0.00  0.00     0.119 C 
BRANCH   8   9
ATOM      9  C   LIG d   1      -9.810  82.699 119.528  0.00  0.00     0.028 C 
ATOM     10  C   LIG d   1     -10.383  82.011 118.277  0.00  0.00     0.006 C 
ENDBRANCH   8   9
BRANCH   8  11
ATOM     11  C   LIG d   1      -7.660  83.853 119.409  0.00  0.00     0.028 C 
ATOM     12  C   LIG d   1      -6.206  83.944 119.898  0.00  0.00     0.006 C 
ENDBRANCH   8  11
ENDBRANCH   7   8
ENDBRANCH   1   7
BRANCH   6  13
ATOM     13  N   LIG d   1      -8.942  79.113 120.160  0.00  0.00    -0.311 N 
ATOM     14  C   LIG d   1     -10.186  78.655 120.035  0.00  0.00     0.210 C 
ATOM     15  C   LIG d   1     -11.052  78.786 121.292  0.00  0.00     0.109 C 
ATOM     16  O   LIG d   1     -10.645  78.123 119.013  0.00  0.00    -0.276 OA
ATOM     17  H   LIG d   1      -8.644  79.500 121.034  0.00  0.00     0.149 HD
ENDBRANCH   6  13
BRANCH   5  18
ATOM     18  N   LIG d   1      -7.795  76.585 118.884  0.00  0.00     0.381 N 
ATOM     19  H   LIG d   1      -7.306  76.003 118.234  0.00  0.00    -0.090 HD
ATOM     20  H   LIG d   1      -8.696  76.804 118.495  0.00  0.00    -0.090 HD
ATOM     21  H   LIG d   1      -7.906  76.108 119.751  0.00  0.00    -0.090 HD
ENDBRANCH   5  18
BRANCH   3  22
ATOM     22  C   LIG d   1      -4.001  79.171 117.521  0.00  0.00     0.382 C 
ATOM     23  O   LIG d   1      -3.725  78.639 116.419  0.00  0.00    -0.241 OA
ATOM     24  O   LIG d   1      -3.089  79.667 118.209  0.00  0.00    -0.241 OA
ENDBRANCH   3  22
TORSDOF 7
ENDMDL
MODEL 5
REMARK VINA RESULT:      -4.6     14.210     16.499
REMARK  7 active torsions:
REMARK  status: ('A' for Active; 'I' for Inactive)
REMARK    1  A    between atoms: C_2  and  C_3 
REMARK    2  A    between atoms: C_3  and  O_6 
REMARK    3  A    between atoms: C_3  and  C_4 
REMARK    4  A    between atoms: C_7  and  O_6 
REMARK    5  A    between atoms: C_9  and  C_10 
REMARK    6  A    between atoms: N_15  and  C_14 
REMARK    7  A    between atoms: N_20  and  C_19 
REMARK       I    between atoms: C_22  and  N_20 
ROOT
ATOM      1  C   LIG d   1      -6.739  77.576 118.021  0.00  0.00     0.161 C 
ATOM      2  C   LIG d   1      -6.258  76.810 116.947  0.00  0.00     0.016 C 
ATOM      3  C   LIG d   1      -7.011  75.792 116.318  0.00  0.00     0.038 C 
ATOM      4  C   LIG d   1      -8.362  75.573 116.624  0.00  0.00     0.028 C 
ATOM      5  C   LIG d   1      -8.736  75.981 118.045  0.00  0.00    -0.047 C 
ATOM      6  C   LIG d   1      -8.251  77.428 118.295  0.00  0.00     0.091 C 
ENDROOT
BRANCH   1   7
ATOM      7  O   LIG d   1      -6.401  78.963 117.821  0.00  0.00    -0.368 OA
BRANCH   7   8
ATOM      8  C   LIG d   1      -5.163  79.411 118.428  0.00  0.00     0.119 C 
BRANCH   8   9
ATOM      9  C   LIG d   1      -5.054  78.734 119.808  0.00  0.00     0.028 C 
ATOM     10  C   LIG d   1      -3.692  78.052 120.021  0.00  0.00     0.006 C 
ENDBRANCH   8   9
BRANCH   8  11
ATOM     11  C   LIG d   1      -5.195  80.915 118.715  0.00  0.00     0.028 C 
ATOM     12  C   LIG d   1      -6.553  81.555 118.387  0.00  0.00     0.006 C 
ENDBRANCH   8  11
ENDBRANCH   7   8
ENDBRANCH   1   7
BRANCH   6  13
ATOM     13  N   LIG d   1      -8.501  77.876 119.690  0.00  0.00    -0.311 N 
ATOM     14  C   LIG d   1      -9.593  78.541 120.061  0.00  0.00     0.210 C 
ATOM     15  C   LIG d   1      -9.644  78.926 121.543  0.00  0.00     0.109 C 
ATOM     16  O   LIG d   1     -10.541  78.820 119.311  0.00  0.00    -0.276 OA
ATOM     17  H   LIG d   1      -7.798  77.664 120.370  0.00  0.00     0.149 HD
ENDBRANCH   6  13
BRANCH   5  18
ATOM     18  N   LIG d   1     -10.196  75.829 118.183  0.00  0.00     0.381 N 
ATOM     19  H   LIG d   1     -10.652  76.677 117.911  0.00  0.00    -0.090 HD
ATOM     20  H   LIG d   1     -10.414  75.650 119.148  0.00  0.00    -0.090 HD
ATOM     21  H   LIG d   1     -10.516  75.075 117.617  0.00  0.00    -0.090 HD
ENDBRANCH   5  18
BRANCH   3  22
ATOM     22  C   LIG d   1      -6.400  74.953 115.398  0.00  0.00     0.382 C 
ATOM     23  O   LIG d   1      -5.590  75.423 114.563  0.00  0.00    -0.241 OA
ATOM     24  O   LIG d   1      -6.682  73.740 115.364  0.00  0.00    -0.241 OA
ENDBRANCH   3  22
TORSDOF 7
ENDMDL
MODEL 6
REMARK VINA RESULT:      -4.6     13.325     15.486
REMARK  7 active torsions:
REMARK  status: ('A' for Active; 'I' for Inactive)
REMARK    1  A    between atoms: C_2  and  C_3 
REMARK    2  A    between atoms: C_3  and  O_6 
REMARK    3  A    between atoms: C_3  and  C_4 
REMARK    4  A    between atoms: C_7  and  O_6 
REMARK    5  A    between atoms: C_9  and  C_10 
REMARK    6  A    between atoms: N_15  and  C_14 
REMARK    7  A    between atoms: N_20  and  C_19 
REMARK       I    between atoms: C_22  and  N_20 
ROOT
ATOM      1  C   LIG d   1      -9.174  79.031 120.475  0.00  0.00     0.161 C 
ATOM      2  C   LIG d   1      -9.599  79.902 119.458  0.00  0.00     0.016 C 
ATOM      3  C   LIG d   1      -8.827  80.991 118.993  0.00  0.00     0.038 C 
ATOM      4  C   LIG d   1      -7.504  81.195 119.412  0.00  0.00     0.028 C 
ATOM      5  C   LIG d   1      -7.218  80.643 120.804  0.00  0.00    -0.047 C 
ATOM      6  C   LIG d   1      -7.688  79.171 120.866  0.00  0.00     0.091 C 
ENDROOT
BRANCH   1   7
ATOM      7  O   LIG d   1      -9.469  77.669 120.108  0.00  0.00    -0.368 OA
BRANCH   7   8
ATOM      8  C   LIG d   1      -9.271  77.328 118.714  0.00  0.00     0.119 C 
BRANCH   8   9
ATOM      9  C   LIG d   1     -10.421  76.390 118.299  0.00  0.00     0.028 C 
ATOM     10  C   LIG d   1      -9.931  75.190 117.471  0.00  0.00     0.006 C 
ENDBRANCH   8   9
BRANCH   8  11
ATOM     11  C   LIG d   1      -7.991  76.511 118.516  0.00  0.00     0.028 C 
ATOM     12  C   LIG d   1      -6.837  77.342 117.933  0.00  0.00     0.006 C 
ENDBRANCH   8  11
ENDBRANCH   7   8
ENDBRANCH   1   7
BRANCH   6  13
ATOM     13  N   LIG d   1      -7.522  78.580 122.220  0.00  0.00    -0.311 N 
ATOM     14  C   LIG d   1      -6.852  77.452 122.450  0.00  0.00     0.210 C 
ATOM     15  C   LIG d   1      -6.818  77.007 123.915  0.00  0.00     0.109 C 
ATOM     16  O   LIG d   1      -6.256  76.794 121.584  0.00  0.00    -0.276 OA
ATOM     17  H   LIG d   1      -7.947  79.065 122.985  0.00  0.00     0.149 HD
ENDBRANCH   6  13
BRANCH   5  18
ATOM     18  N   LIG d   1      -5.774  80.800 121.058  0.00  0.00     0.381 N 
ATOM     19  H   LIG d   1      -5.334  79.901 121.080  0.00  0.00    -0.090 HD
ATOM     20  H   LIG d   1      -5.646  81.236 121.954  0.00  0.00    -0.090 HD
ATOM     21  H   LIG d   1      -5.361  81.362 120.346  0.00  0.00    -0.090 HD
ENDBRANCH   5  18
BRANCH   3  22
ATOM     22  C   LIG d   1      -9.394  81.914 118.127  0.00  0.00     0.382 C 
ATOM     23  O   LIG d   1      -8.704  82.416 117.206  0.00  0.00    -0.241 OA
ATOM     24  O   LIG d   1     -10.572  82.286 118.282  0.00  0.00    -0.241 OA
ENDBRANCH   3  22
TORSDOF 7
ENDMDL
MODEL 7
REMARK VINA RESULT:      -4.5     13.550     16.036
REMARK  7 active torsions:
REMARK  status: ('A' for Active; 'I' for Inactive)
REMARK    1  A    between atoms: C_2  and  C_3 
REMARK    2  A    between atoms: C_3  and  O_6 
REMARK    3  A    between atoms: C_3  and  C_4 
REMARK    4  A    between atoms: C_7  and  O_6 
REMARK    5  A    between atoms: C_9  and  C_10 
REMARK    6  A    between atoms: N_15  and  C_14 
REMARK    7  A    between atoms: N_20  and  C_19 
REMARK       I    between atoms: C_22  and  N_20 
ROOT
ATOM      1  C   LIG d   1      -8.427  78.189 119.457  0.00  0.00     0.161 C 
ATOM      2  C   LIG d   1      -9.660  78.209 120.131  0.00  0.00     0.016 C 
ATOM      3  C   LIG d   1     -10.144  79.336 120.835  0.00  0.00     0.038 C 
ATOM      4  C   LIG d   1      -9.491  80.577 120.787  0.00  0.00     0.028 C 
ATOM      5  C   LIG d   1      -7.991  80.463 120.539  0.00  0.00    -0.047 C 
ATOM      6  C   LIG d   1      -7.754  79.568 119.301  0.00  0.00     0.091 C 
ENDROOT
BRANCH   1   7
ATOM      7  O   LIG d   1      -8.584  77.559 118.171  0.00  0.00    -0.368 OA
BRANCH   7   8
ATOM      8  C   LIG d   1      -7.885  76.303 117.987  0.00  0.00     0.119 C 
BRANCH   8   9
ATOM      9  C   LIG d   1      -6.793  76.532 116.924  0.00  0.00     0.028 C 
ATOM     10  C   LIG d   1      -6.853  75.497 115.788  0.00  0.00     0.006 C 
ENDBRANCH   8   9
BRANCH   8  11
ATOM     11  C   LIG d   1      -8.807  75.233 117.396  0.00  0.00     0.028 C 
ATOM     12  C   LIG d   1     -10.278  75.424 117.802  0.00  0.00     0.006 C 
ENDBRANCH   8  11
ENDBRANCH   7   8
ENDBRANCH   1   7
BRANCH   6  13
ATOM     13  N   LIG d   1      -6.309  79.336 119.038  0.00  0.00    -0.311 N 
ATOM     14  C   LIG d   1      -5.594  80.064 118.182  0.00  0.00     0.210 C 
ATOM     15  C   LIG d   1      -4.127  79.644 118.046  0.00  0.00     0.109 C 
ATOM     16  O   LIG d   1      -6.026  81.037 117.547  0.00  0.00    -0.276 OA
ATOM     17  H   LIG d   1      -5.870  78.585 119.534  0.00  0.00     0.149 HD
ENDBRANCH   6  13
BRANCH   5  18
ATOM     18  N   LIG d   1      -7.461  81.830 120.375  0.00  0.00     0.381 N 
ATOM     19  H   LIG d   1      -7.473  82.084 119.408  0.00  0.00    -0.090 HD
ATOM     20  H   LIG d   1      -6.509  81.850 120.695  0.00  0.00    -0.090 HD
ATOM     21  H   LIG d   1      -8.010  82.473 120.902  0.00  0.00    -0.090 HD
ENDBRANCH   5  18
BRANCH   3  22
ATOM     22  C   LIG d   1     -11.273  79.216 121.631  0.00  0.00     0.382 C 
ATOM     23  O   LIG d   1     -11.810  80.241 122.116  0.00  0.00    -0.241 OA
ATOM     24  O   LIG d   1     -11.734  78.092 121.908  0.00  0.00    -0.241 OA
ENDBRANCH   3  22
TORSDOF 7
ENDMDL
MODEL 8
REMARK VINA RESULT:      -4.4      5.561      8.088
REMARK  7 active torsions:
REMARK  status: ('A' for Active; 'I' for Inactive)
REMARK    1  A    between atoms: C_2  and  C_3 
REMARK    2  A    between atoms: C_3  and  O_6 
REMARK    3  A    between atoms: C_3  and  C_4 
REMARK    4  A    between atoms: C_7  and  O_6 
REMARK    5  A    between atoms: C_9  and  C_10 
REMARK    6  A    between atoms: N_15  and  C_14 
REMARK    7  A    between atoms: N_20  and  C_19 
REMARK       I    between atoms: C_22  and  N_20 
ROOT
ATOM      1  C   LIG d   1      -0.150  91.185 117.560  0.00  0.00     0.161 C 
ATOM      2  C   LIG d   1       1.226  91.228 117.280  0.00  0.00     0.016 C 
ATOM      3  C   LIG d   1       1.966  92.430 117.194  0.00  0.00     0.038 C 
ATOM      4  C   LIG d   1       1.406  93.671 117.533  0.00  0.00     0.028 C 
ATOM      5  C   LIG d   1      -0.104  93.730 117.330  0.00  0.00    -0.047 C 
ATOM      6  C   LIG d   1      -0.753  92.521 118.042  0.00  0.00     0.091 C 
ENDROOT
BRANCH   1   7
ATOM      7  O   LIG d   1      -0.422  90.139 118.514  0.00  0.00    -0.368 OA
BRANCH   7   8
ATOM      8  C   LIG d   1      -1.257  89.052 118.046  0.00  0.00     0.119 C 
BRANCH   8   9
ATOM      9  C   LIG d   1      -2.216  88.677 119.193  0.00  0.00     0.028 C 
ATOM     10  C   LIG d   1      -2.231  89.731 120.313  0.00  0.00     0.006 C 
ENDBRANCH   8   9
BRANCH   8  11
ATOM     11  C   LIG d   1      -0.431  87.790 117.780  0.00  0.00     0.028 C 
ATOM     12  C   LIG d   1      -0.627  86.711 118.856  0.00  0.00     0.006 C 
ENDBRANCH   8  11
ENDBRANCH   7   8
ENDBRANCH   1   7
BRANCH   6  13
ATOM     13  N   LIG d   1      -2.222  92.456 117.824  0.00  0.00    -0.311 N 
ATOM     14  C   LIG d   1      -3.111  93.000 118.652  0.00  0.00     0.210 C 
ATOM     15  C   LIG d   1      -4.576  92.800 118.251  0.00  0.00     0.109 C 
ATOM     16  O   LIG d   1      -2.825  93.657 119.665  0.00  0.00    -0.276 OA
ATOM     17  H   LIG d   1      -2.541  91.969 117.009  0.00  0.00     0.149 HD
ENDBRANCH   6  13
BRANCH   5  18
ATOM     18  N   LIG d   1      -0.573  95.028 117.851  0.00  0.00     0.381 N 
ATOM     19  H   LIG d   1      -0.267  95.765 117.248  0.00  0.00    -0.090 HD
ATOM     20  H   LIG d   1      -0.172  95.177 118.760  0.00  0.00    -0.090 HD
ATOM     21  H   LIG d   1      -1.567  95.031 117.913  0.00  0.00    -0.090 HD
ENDBRANCH   5  18
BRANCH   3  22
ATOM     22  C   LIG d   1       3.270  92.401 116.725  0.00  0.00     0.382 C 
ATOM     23  O   LIG d   1       3.670  91.428 116.042  0.00  0.00    -0.241 OA
ATOM     24  O   LIG d   1       4.066  93.315 117.014  0.00  0.00    -0.241 OA
ENDBRANCH   3  22
TORSDOF 7
ENDMDL
MODEL 9
REMARK VINA RESULT:      -4.4     28.201     30.780
REMARK  7 active torsions:
REMARK  status: ('A' for Active; 'I' for Inactive)
REMARK    1  A    between atoms: C_2  and  C_3 
REMARK    2  A    between atoms: C_3  and  O_6 
REMARK    3  A    between atoms: C_3  and  C_4 
REMARK    4  A    between atoms: C_7  and  O_6 
REMARK    5  A    between atoms: C_9  and  C_10 
REMARK    6  A    between atoms: N_15  and  C_14 
REMARK    7  A    between atoms: N_20  and  C_19 
REMARK       I    between atoms: C_22  and  N_20 
ROOT
ATOM      1  C   LIG d   1     -15.735  64.708 117.529  0.00  0.00     0.161 C 
ATOM      2  C   LIG d   1     -15.831  66.104 117.406  0.00  0.00     0.016 C 
ATOM      3  C   LIG d   1     -15.176  67.009 118.273  0.00  0.00     0.038 C 
ATOM      4  C   LIG d   1     -14.253  66.576 119.236  0.00  0.00     0.028 C 
ATOM      5  C   LIG d   1     -14.511  65.155 119.727  0.00  0.00    -0.047 C 
ATOM      6  C   LIG d   1     -14.644  64.219 118.504  0.00  0.00     0.091 C 
ENDROOT
BRANCH   1   7
ATOM      7  O   LIG d   1     -15.548  64.115 116.229  0.00  0.00    -0.368 OA
BRANCH   7   8
ATOM      8  C   LIG d   1     -16.681  63.393 115.688  0.00  0.00     0.119 C 
BRANCH   8   9
ATOM      9  C   LIG d   1     -17.345  64.297 114.631  0.00  0.00     0.028 C 
ATOM     10  C   LIG d   1     -18.716  64.823 115.087  0.00  0.00     0.006 C 
ENDBRANCH   8   9
BRANCH   8  11
ATOM     11  C   LIG d   1     -17.755  63.161 116.756  0.00  0.00     0.028 C 
ATOM     12  C   LIG d   1     -17.956  61.674 117.085  0.00  0.00     0.006 C 
ENDBRANCH   8  11
ENDBRANCH   7   8
ENDBRANCH   1   7
BRANCH   6  13
ATOM     13  N   LIG d   1     -14.981  62.824 118.892  0.00  0.00    -0.311 N 
ATOM     14  C   LIG d   1     -14.271  61.765 118.509  0.00  0.00     0.210 C 
ATOM     15  C   LIG d   1     -14.803  60.416 119.004  0.00  0.00     0.109 C 
ATOM     16  O   LIG d   1     -13.233  61.816 117.832  0.00  0.00    -0.276 OA
ATOM     17  H   LIG d   1     -15.790  62.694 119.467  0.00  0.00     0.149 HD
ENDBRANCH   6  13
BRANCH   5  18
ATOM     18  N   LIG d   1     -13.398  64.784 120.621  0.00  0.00     0.381 N 
ATOM     19  H   LIG d   1     -12.580  64.588 120.080  0.00  0.00    -0.090 HD
ATOM     20  H   LIG d   1     -13.650  63.951 121.124  0.00  0.00    -0.090 HD
ATOM     21  H   LIG d   1     -13.213  65.524 121.261  0.00  0.00    -0.090 HD
ENDBRANCH   5  18
BRANCH   3  22
ATOM     22  C   LIG d   1     -15.474  68.362 118.207  0.00  0.00     0.382 C 
ATOM     23  O   LIG d   1     -15.508  68.943 117.096  0.00  0.00    -0.241 OA
ATOM     24  O   LIG d   1     -15.664  69.018 119.249  0.00  0.00    -0.241 OA
ENDBRANCH   3  22
TORSDOF 7
ENDMDL
