MODEL 1
REMARK VINA RESULT:      -5.5      0.000      0.000
REMARK  7 active torsions:
REMARK  status: ('A' for Active; 'I' for Inactive)
REMARK    1  A    between atoms: C_2  and  C_3 
REMARK    2  A    between atoms: C_3  and  O_6 
REMARK    3  A    between atoms: C_3  and  C_4 
REMARK    4  A    between atoms: C_7  and  O_6 
REMARK    5  A    between atoms: C_9  and  C_10 
REMARK    6  A    between atoms: N_15  and  C_14 
REMARK    7  A    between atoms: N_20  and  C_19 
REMARK       I    between atoms: C_22  and  N_20 
ROOT
ATOM      1  C   LIG d   1      -1.259  58.948 118.252  0.00  0.00     0.161 C 
ATOM      2  C   LIG d   1      -2.444  59.024 117.500  0.00  0.00     0.016 C 
ATOM      3  C   LIG d   1      -3.678  59.459 118.034  0.00  0.00     0.038 C 
ATOM      4  C   LIG d   1      -3.779  59.995 119.327  0.00  0.00     0.028 C 
ATOM      5  C   LIG d   1      -2.716  59.468 120.285  0.00  0.00    -0.047 C 
ATOM      6  C   LIG d   1      -1.325  59.634 119.633  0.00  0.00     0.091 C 
ENDROOT
BRANCH   1   7
ATOM      7  O   LIG d   1      -0.158  59.474 117.484  0.00  0.00    -0.368 OA
BRANCH   7   8
ATOM      8  C   LIG d   1       0.786  58.500 116.975  0.00  0.00     0.119 C 
BRANCH   8   9
ATOM      9  C   LIG d   1       0.394  58.192 115.517  0.00  0.00     0.028 C 
ATOM     10  C   LIG d   1       0.766  59.333 114.556  0.00  0.00     0.006 C 
ENDBRANCH   8   9
BRANCH   8  11
ATOM     11  C   LIG d   1       0.665  57.166 117.718  0.00  0.00     0.028 C 
ATOM     12  C   LIG d   1       0.278  56.002 116.793  0.00  0.00     0.006 C 
ENDBRANCH   8  11
ENDBRANCH   7   8
ENDBRANCH   1   7
BRANCH   6  13
ATOM     13  N   LIG d   1      -0.235  59.066 120.469  0.00  0.00    -0.311 N 
ATOM     14  C   LIG d   1       0.427  59.769 121.386  0.00  0.00     0.210 C 
ATOM     15  C   LIG d   1       1.526  58.998 122.122  0.00  0.00     0.109 C 
ATOM     16  O   LIG d   1       0.186  60.949 121.682  0.00  0.00    -0.276 OA
ATOM     17  H   LIG d   1       0.004  58.106 120.316  0.00  0.00     0.149 HD
ENDBRANCH   6  13
BRANCH   5  18
ATOM     18  N   LIG d   1      -2.852  60.210 121.553  0.00  0.00     0.381 N 
ATOM     19  H   LIG d   1      -2.801  59.575 122.324  0.00  0.00    -0.090 HD
ATOM     20  H   LIG d   1      -3.752  60.658 121.572  0.00  0.00    -0.090 HD
ATOM     21  H   LIG d   1      -2.131  60.893 121.627  0.00  0.00    -0.090 HD
ENDBRANCH   5  18
BRANCH   3  22
ATOM     22  C   LIG d   1      -4.837  59.322 117.286  0.00  0.00     0.382 C 
ATOM     23  O   LIG d   1      -4.916  59.850 116.150  0.00  0.00    -0.241 OA
ATOM     24  O   LIG d   1      -5.821  58.716 117.750  0.00  0.00    -0.241 OA
ENDBRANCH   3  22
TORSDOF 7
ENDMDL
MODEL 2
REMARK VINA RESULT:      -5.5     32.894     34.494
REMARK  7 active torsions:
REMARK  status: ('A' for Active; 'I' for Inactive)
REMARK    1  A    between atoms: C_2  and  C_3 
REMARK    2  A    between atoms: C_3  and  O_6 
REMARK    3  A    between atoms: C_3  and  C_4 
REMARK    4  A    between atoms: C_7  and  O_6 
REMARK    5  A    between atoms: C_9  and  C_10 
REMARK    6  A    between atoms: N_15  and  C_14 
REMARK    7  A    between atoms: N_20  and  C_19 
REMARK       I    between atoms: C_22  and  N_20 
ROOT
ATOM      1  C   LIG d   1      -6.467  92.484 118.399  0.00  0.00     0.161 C 
ATOM      2  C   LIG d   1      -5.327  93.216 118.771  0.00  0.00     0.016 C 
ATOM      3  C   LIG d   1      -4.036  92.961 118.254  0.00  0.00     0.038 C 
ATOM      4  C   LIG d   1      -3.822  92.049 117.210  0.00  0.00     0.028 C 
ATOM      5  C   LIG d   1      -4.860  90.933 117.159  0.00  0.00    -0.047 C 
ATOM      6  C   LIG d   1      -6.273  91.559 117.179  0.00  0.00     0.091 C 
ENDROOT
BRANCH   1   7
ATOM      7  O   LIG d   1      -7.573  93.381 118.176  0.00  0.00    -0.368 OA
BRANCH   7   8
ATOM      8  C   LIG d   1      -7.517  94.647 118.878  0.00  0.00     0.119 C 
BRANCH   8   9
ATOM      9  C   LIG d   1      -8.529  94.579 120.038  0.00  0.00     0.028 C 
ATOM     10  C   LIG d   1      -7.864  94.782 121.410  0.00  0.00     0.006 C 
ENDBRANCH   8   9
BRANCH   8  11
ATOM     11  C   LIG d   1      -7.997  95.798 117.989  0.00  0.00     0.028 C 
ATOM     12  C   LIG d   1      -9.464  96.179 118.246  0.00  0.00     0.006 C 
ENDBRANCH   8  11
ENDBRANCH   7   8
ENDBRANCH   1   7
BRANCH   6  13
ATOM     13  N   LIG d   1      -7.347  90.533 117.216  0.00  0.00    -0.311 N 
ATOM     14  C   LIG d   1      -7.873  89.982 116.124  0.00  0.00     0.210 C 
ATOM     15  C   LIG d   1      -8.983  88.960 116.385  0.00  0.00     0.109 C 
ATOM     16  O   LIG d   1      -7.502  90.219 114.964  0.00  0.00    -0.276 OA
ATOM     17  H   LIG d   1      -7.685  90.259 118.118  0.00  0.00     0.149 HD
ENDBRANCH   6  13
BRANCH   5  18
ATOM     18  N   LIG d   1      -4.598  90.136 115.945  0.00  0.00     0.381 N 
ATOM     19  H   LIG d   1      -3.616  90.121 115.755  0.00  0.00    -0.090 HD
ATOM     20  H   LIG d   1      -5.063  90.569 115.166  0.00  0.00    -0.090 HD
ATOM     21  H   LIG d   1      -4.934  89.207 116.067  0.00  0.00    -0.090 HD
ENDBRANCH   5  18
BRANCH   3  22
ATOM     22  C   LIG d   1      -2.936  93.594 118.811  0.00  0.00     0.382 C 
ATOM     23  O   LIG d   1      -2.245  94.377 118.116  0.00  0.00    -0.241 OA
ATOM     24  O   LIG d   1      -2.599  93.359 119.987  0.00  0.00    -0.241 OA
ENDBRANCH   3  22
TORSDOF 7
ENDMDL
MODEL 3
REMARK VINA RESULT:      -5.5     31.783     32.886
REMARK  7 active torsions:
REMARK  status: ('A' for Active; 'I' for Inactive)
REMARK    1  A    between atoms: C_2  and  C_3 
REMARK    2  A    between atoms: C_3  and  O_6 
REMARK    3  A    between atoms: C_3  and  C_4 
REMARK    4  A    between atoms: C_7  and  O_6 
REMARK    5  A    between atoms: C_9  and  C_10 
REMARK    6  A    between atoms: N_15  and  C_14 
REMARK    7  A    between atoms: N_20  and  C_19 
REMARK       I    between atoms: C_22  and  N_20 
ROOT
ATOM      1  C   LIG d   1      -4.091  91.821 117.434  0.00  0.00     0.161 C 
ATOM      2  C   LIG d   1      -5.357  92.396 117.233  0.00  0.00     0.016 C 
ATOM      3  C   LIG d   1      -6.302  91.893 116.308  0.00  0.00     0.038 C 
ATOM      4  C   LIG d   1      -6.100  90.684 115.626  0.00  0.00     0.028 C 
ATOM      5  C   LIG d   1      -4.629  90.341 115.422  0.00  0.00    -0.047 C 
ATOM      6  C   LIG d   1      -3.898  90.437 116.780  0.00  0.00     0.091 C 
ENDROOT
BRANCH   1   7
ATOM      7  O   LIG d   1      -3.805  91.753 118.845  0.00  0.00    -0.368 OA
BRANCH   7   8
ATOM      8  C   LIG d   1      -2.821  92.695 119.342  0.00  0.00     0.119 C 
BRANCH   8   9
ATOM      9  C   LIG d   1      -3.583  93.814 120.078  0.00  0.00     0.028 C 
ATOM     10  C   LIG d   1      -3.302  95.204 119.485  0.00  0.00     0.006 C 
ENDBRANCH   8   9
BRANCH   8  11
ATOM     11  C   LIG d   1      -2.088  93.392 118.193  0.00  0.00     0.028 C 
ATOM     12  C   LIG d   1      -0.607  92.991 118.101  0.00  0.00     0.006 C 
ENDBRANCH   8  11
ENDBRANCH   7   8
ENDBRANCH   1   7
BRANCH   6  13
ATOM     13  N   LIG d   1      -2.436  90.199 116.656  0.00  0.00    -0.311 N 
ATOM     14  C   LIG d   1      -1.778  89.286 117.368  0.00  0.00     0.210 C 
ATOM     15  C   LIG d   1      -0.272  89.218 117.099  0.00  0.00     0.109 C 
ATOM     16  O   LIG d   1      -2.305  88.503 118.173  0.00  0.00    -0.276 OA
ATOM     17  H   LIG d   1      -1.935  90.769 116.002  0.00  0.00     0.149 HD
ENDBRANCH   6  13
BRANCH   5  18
ATOM     18  N   LIG d   1      -4.563  88.994 114.824  0.00  0.00     0.381 N 
ATOM     19  H   LIG d   1      -3.664  88.590 114.996  0.00  0.00    -0.090 HD
ATOM     20  H   LIG d   1      -4.688  89.074 113.830  0.00  0.00    -0.090 HD
ATOM     21  H   LIG d   1      -5.276  88.415 115.210  0.00  0.00    -0.090 HD
ENDBRANCH   5  18
BRANCH   3  22
ATOM     22  C   LIG d   1      -7.446  92.625 116.028  0.00  0.00     0.382 C 
ATOM     23  O   LIG d   1      -8.114  92.374 114.996  0.00  0.00    -0.241 OA
ATOM     24  O   LIG d   1      -7.794  93.561 116.772  0.00  0.00    -0.241 OA
ENDBRANCH   3  22
TORSDOF 7
ENDMDL
MODEL 4
REMARK VINA RESULT:      -5.3     32.613     33.741
REMARK  7 active torsions:
REMARK  status: ('A' for Active; 'I' for Inactive)
REMARK    1  A    between atoms: C_2  and  C_3 
REMARK    2  A    between atoms: C_3  and  O_6 
REMARK    3  A    between atoms: C_3  and  C_4 
REMARK    4  A    between atoms: C_7  and  O_6 
REMARK    5  A    between atoms: C_9  and  C_10 
REMARK    6  A    between atoms: N_15  and  C_14 
REMARK    7  A    between atoms: N_20  and  C_19 
REMARK       I    between atoms: C_22  and  N_20 
ROOT
ATOM      1  C   LIG d   1      -4.946  91.767 118.539  0.00  0.00     0.161 C 
ATOM      2  C   LIG d   1      -4.942  90.909 117.427  0.00  0.00     0.016 C 
ATOM      3  C   LIG d   1      -5.788  91.080 116.308  0.00  0.00     0.038 C 
ATOM      4  C   LIG d   1      -6.595  92.217 116.156  0.00  0.00     0.028 C 
ATOM      5  C   LIG d   1      -7.005  92.850 117.481  0.00  0.00    -0.047 C 
ATOM      6  C   LIG d   1      -5.741  93.075 118.342  0.00  0.00     0.091 C 
ENDROOT
BRANCH   1   7
ATOM      7  O   LIG d   1      -3.592  92.059 118.937  0.00  0.00    -0.368 OA
BRANCH   7   8
ATOM      8  C   LIG d   1      -2.664  92.359 117.866  0.00  0.00     0.119 C 
BRANCH   8   9
ATOM      9  C   LIG d   1      -1.392  91.523 118.108  0.00  0.00     0.028 C 
ATOM     10  C   LIG d   1      -1.363  90.239 117.263  0.00  0.00     0.006 C 
ENDBRANCH   8   9
BRANCH   8  11
ATOM     11  C   LIG d   1      -2.205  93.819 117.918  0.00  0.00     0.028 C 
ATOM     12  C   LIG d   1      -2.462  94.476 119.283  0.00  0.00     0.006 C 
ENDBRANCH   8  11
ENDBRANCH   7   8
ENDBRANCH   1   7
BRANCH   6  13
ATOM     13  N   LIG d   1      -6.061  93.614 119.690  0.00  0.00    -0.311 N 
ATOM     14  C   LIG d   1      -6.075  94.915 119.975  0.00  0.00     0.210 C 
ATOM     15  C   LIG d   1      -6.411  95.254 121.431  0.00  0.00     0.109 C 
ATOM     16  O   LIG d   1      -5.873  95.822 119.153  0.00  0.00    -0.276 OA
ATOM     17  H   LIG d   1      -6.269  92.949 120.409  0.00  0.00     0.149 HD
ENDBRANCH   6  13
BRANCH   5  18
ATOM     18  N   LIG d   1      -7.726  94.100 117.174  0.00  0.00     0.381 N 
ATOM     19  H   LIG d   1      -7.073  94.851 117.072  0.00  0.00    -0.090 HD
ATOM     20  H   LIG d   1      -8.340  94.318 117.940  0.00  0.00    -0.090 HD
ATOM     21  H   LIG d   1      -8.253  93.993 116.336  0.00  0.00    -0.090 HD
ENDBRANCH   5  18
BRANCH   3  22
ATOM     22  C   LIG d   1      -5.861  90.087 115.343  0.00  0.00     0.382 C 
ATOM     23  O   LIG d   1      -6.956  89.835 114.785  0.00  0.00    -0.241 OA
ATOM     24  O   LIG d   1      -4.855  89.410 115.055  0.00  0.00    -0.241 OA
ENDBRANCH   3  22
TORSDOF 7
ENDMDL
MODEL 5
REMARK VINA RESULT:      -5.2     31.621     32.637
REMARK  7 active torsions:
REMARK  status: ('A' for Active; 'I' for Inactive)
REMARK    1  A    between atoms: C_2  and  C_3 
REMARK    2  A    between atoms: C_3  and  O_6 
REMARK    3  A    between atoms: C_3  and  C_4 
REMARK    4  A    between atoms: C_7  and  O_6 
REMARK    5  A    between atoms: C_9  and  C_10 
REMARK    6  A    between atoms: N_15  and  C_14 
REMARK    7  A    between atoms: N_20  and  C_19 
REMARK       I    between atoms: C_22  and  N_20 
ROOT
ATOM      1  C   LIG d   1      -4.516  91.070 117.517  0.00  0.00     0.161 C 
ATOM      2  C   LIG d   1      -5.493  90.540 116.658  0.00  0.00     0.016 C 
ATOM      3  C   LIG d   1      -6.696  91.211 116.338  0.00  0.00     0.038 C 
ATOM      4  C   LIG d   1      -6.936  92.533 116.740  0.00  0.00     0.028 C 
ATOM      5  C   LIG d   1      -6.206  92.919 118.023  0.00  0.00    -0.047 C 
ATOM      6  C   LIG d   1      -4.710  92.558 117.876  0.00  0.00     0.091 C 
ENDROOT
BRANCH   1   7
ATOM      7  O   LIG d   1      -3.205  90.856 116.957  0.00  0.00    -0.368 OA
BRANCH   7   8
ATOM      8  C   LIG d   1      -2.544  89.624 117.336  0.00  0.00     0.119 C 
BRANCH   8   9
ATOM      9  C   LIG d   1      -2.831  89.385 118.831  0.00  0.00     0.028 C 
ATOM     10  C   LIG d   1      -2.068  88.171 119.388  0.00  0.00     0.006 C 
ENDBRANCH   8   9
BRANCH   8  11
ATOM     11  C   LIG d   1      -1.021  89.754 117.231  0.00  0.00     0.028 C 
ATOM     12  C   LIG d   1      -0.521  91.173 117.546  0.00  0.00     0.006 C 
ENDBRANCH   8  11
ENDBRANCH   7   8
ENDBRANCH   1   7
BRANCH   6  13
ATOM     13  N   LIG d   1      -3.938  92.825 119.118  0.00  0.00    -0.311 N 
ATOM     14  C   LIG d   1      -2.891  93.646 119.168  0.00  0.00     0.210 C 
ATOM     15  C   LIG d   1      -2.226  93.763 120.543  0.00  0.00     0.109 C 
ATOM     16  O   LIG d   1      -2.469  94.313 118.212  0.00  0.00    -0.276 OA
ATOM     17  H   LIG d   1      -4.231  92.349 119.949  0.00  0.00     0.149 HD
ENDBRANCH   6  13
BRANCH   5  18
ATOM     18  N   LIG d   1      -6.434  94.358 118.250  0.00  0.00     0.381 N 
ATOM     19  H   LIG d   1      -6.352  94.564 119.225  0.00  0.00    -0.090 HD
ATOM     20  H   LIG d   1      -7.366  94.590 117.955  0.00  0.00    -0.090 HD
ATOM     21  H   LIG d   1      -5.771  94.894 117.733  0.00  0.00    -0.090 HD
ENDBRANCH   5  18
BRANCH   3  22
ATOM     22  C   LIG d   1      -7.691  90.543 115.642  0.00  0.00     0.382 C 
ATOM     23  O   LIG d   1      -8.381  91.157 114.792  0.00  0.00    -0.241 OA
ATOM     24  O   LIG d   1      -7.938  89.347 115.884  0.00  0.00    -0.241 OA
ENDBRANCH   3  22
TORSDOF 7
ENDMDL
MODEL 6
REMARK VINA RESULT:      -5.2      3.644      4.997
REMARK  7 active torsions:
REMARK  status: ('A' for Active; 'I' for Inactive)
REMARK    1  A    between atoms: C_2  and  C_3 
REMARK    2  A    between atoms: C_3  and  O_6 
REMARK    3  A    between atoms: C_3  and  C_4 
REMARK    4  A    between atoms: C_7  and  O_6 
REMARK    5  A    between atoms: C_9  and  C_10 
REMARK    6  A    between atoms: N_15  and  C_14 
REMARK    7  A    between atoms: N_20  and  C_19 
REMARK       I    between atoms: C_22  and  N_20 
ROOT
ATOM      1  C   LIG d   1       0.720  57.491 118.193  0.00  0.00     0.161 C 
ATOM      2  C   LIG d   1      -0.413  57.434 117.365  0.00  0.00     0.016 C 
ATOM      3  C   LIG d   1      -0.415  57.864 116.018  0.00  0.00     0.038 C 
ATOM      4  C   LIG d   1       0.764  58.243 115.360  0.00  0.00     0.028 C 
ATOM      5  C   LIG d   1       1.832  58.795 116.298  0.00  0.00    -0.047 C 
ATOM      6  C   LIG d   1       2.043  57.797 117.460  0.00  0.00     0.091 C 
ENDROOT
BRANCH   1   7
ATOM      7  O   LIG d   1       0.837  56.267 118.947  0.00  0.00    -0.368 OA
BRANCH   7   8
ATOM      8  C   LIG d   1       1.579  55.197 118.312  0.00  0.00     0.119 C 
BRANCH   8   9
ATOM      9  C   LIG d   1       0.575  54.083 117.960  0.00  0.00     0.028 C 
ATOM     10  C   LIG d   1      -0.132  53.515 119.202  0.00  0.00     0.006 C 
ENDBRANCH   8   9
BRANCH   8  11
ATOM     11  C   LIG d   1       2.572  54.555 119.286  0.00  0.00     0.028 C 
ATOM     12  C   LIG d   1       2.739  55.360 120.584  0.00  0.00     0.006 C 
ENDBRANCH   8  11
ENDBRANCH   7   8
ENDBRANCH   1   7
BRANCH   6  13
ATOM     13  N   LIG d   1       3.011  58.299 118.470  0.00  0.00    -0.311 N 
ATOM     14  C   LIG d   1       4.296  57.949 118.491  0.00  0.00     0.210 C 
ATOM     15  C   LIG d   1       5.116  58.565 119.628  0.00  0.00     0.109 C 
ATOM     16  O   LIG d   1       4.841  57.211 117.656  0.00  0.00    -0.276 OA
ATOM     17  H   LIG d   1       2.660  58.927 119.166  0.00  0.00     0.149 HD
ENDBRANCH   6  13
BRANCH   5  18
ATOM     18  N   LIG d   1       3.053  59.020 115.501  0.00  0.00     0.381 N 
ATOM     19  H   LIG d   1       3.767  59.415 116.080  0.00  0.00    -0.090 HD
ATOM     20  H   LIG d   1       2.845  59.674 114.767  0.00  0.00    -0.090 HD
ATOM     21  H   LIG d   1       3.369  58.160 115.111  0.00  0.00    -0.090 HD
ENDBRANCH   5  18
BRANCH   3  22
ATOM     22  C   LIG d   1      -1.614  57.956 115.328  0.00  0.00     0.382 C 
ATOM     23  O   LIG d   1      -1.906  59.012 114.716  0.00  0.00    -0.241 OA
ATOM     24  O   LIG d   1      -2.427  57.013 115.346  0.00  0.00    -0.241 OA
ENDBRANCH   3  22
TORSDOF 7
ENDMDL
MODEL 7
REMARK VINA RESULT:      -5.2     33.048     34.363
REMARK  7 active torsions:
REMARK  status: ('A' for Active; 'I' for Inactive)
REMARK    1  A    between atoms: C_2  and  C_3 
REMARK    2  A    between atoms: C_3  and  O_6 
REMARK    3  A    between atoms: C_3  and  C_4 
REMARK    4  A    between atoms: C_7  and  O_6 
REMARK    5  A    between atoms: C_9  and  C_10 
REMARK    6  A    between atoms: N_15  and  C_14 
REMARK    7  A    between atoms: N_20  and  C_19 
REMARK       I    between atoms: C_22  and  N_20 
ROOT
ATOM      1  C   LIG d   1      -6.136  92.958 118.164  0.00  0.00     0.161 C 
ATOM      2  C   LIG d   1      -6.782  91.905 117.496  0.00  0.00     0.016 C 
ATOM      3  C   LIG d   1      -6.092  90.878 116.812  0.00  0.00     0.038 C 
ATOM      4  C   LIG d   1      -4.697  90.750 116.879  0.00  0.00     0.028 C 
ATOM      5  C   LIG d   1      -3.978  92.073 117.120  0.00  0.00    -0.047 C 
ATOM      6  C   LIG d   1      -4.614  92.774 118.342  0.00  0.00     0.091 C 
ENDROOT
BRANCH   1   7
ATOM      7  O   LIG d   1      -6.765  93.186 119.441  0.00  0.00    -0.368 OA
BRANCH   7   8
ATOM      8  C   LIG d   1      -7.859  94.136 119.451  0.00  0.00     0.119 C 
BRANCH   8   9
ATOM      9  C   LIG d   1      -7.261  95.532 119.188  0.00  0.00     0.028 C 
ATOM     10  C   LIG d   1      -7.938  96.247 118.007  0.00  0.00     0.006 C 
ENDBRANCH   8   9
BRANCH   8  11
ATOM     11  C   LIG d   1      -8.505  94.227 120.837  0.00  0.00     0.028 C 
ATOM     12  C   LIG d   1     -10.040  94.169 120.783  0.00  0.00     0.006 C 
ENDBRANCH   8  11
ENDBRANCH   7   8
ENDBRANCH   1   7
BRANCH   6  13
ATOM     13  N   LIG d   1      -4.025  94.115 118.596  0.00  0.00    -0.311 N 
ATOM     14  C   LIG d   1      -3.010  94.324 119.433  0.00  0.00     0.210 C 
ATOM     15  C   LIG d   1      -2.570  95.785 119.563  0.00  0.00     0.109 C 
ATOM     16  O   LIG d   1      -2.412  93.433 120.054  0.00  0.00    -0.276 OA
ATOM     17  H   LIG d   1      -4.430  94.891 118.109  0.00  0.00     0.149 HD
ENDBRANCH   6  13
BRANCH   5  18
ATOM     18  N   LIG d   1      -2.545  91.775 117.305  0.00  0.00     0.381 N 
ATOM     19  H   LIG d   1      -2.064  92.599 117.606  0.00  0.00    -0.090 HD
ATOM     20  H   LIG d   1      -2.157  91.487 116.424  0.00  0.00    -0.090 HD
ATOM     21  H   LIG d   1      -2.432  91.050 117.979  0.00  0.00    -0.090 HD
ENDBRANCH   5  18
BRANCH   3  22
ATOM     22  C   LIG d   1      -6.798  89.987 116.017  0.00  0.00     0.382 C 
ATOM     23  O   LIG d   1      -6.446  89.793 114.829  0.00  0.00    -0.241 OA
ATOM     24  O   LIG d   1      -7.808  89.408 116.461  0.00  0.00    -0.241 OA
ENDBRANCH   3  22
TORSDOF 7
ENDMDL
MODEL 8
REMARK VINA RESULT:      -5.2     32.641     33.926
REMARK  7 active torsions:
REMARK  status: ('A' for Active; 'I' for Inactive)
REMARK    1  A    between atoms: C_2  and  C_3 
REMARK    2  A    between atoms: C_3  and  O_6 
REMARK    3  A    between atoms: C_3  and  C_4 
REMARK    4  A    between atoms: C_7  and  O_6 
REMARK    5  A    between atoms: C_9  and  C_10 
REMARK    6  A    between atoms: N_15  and  C_14 
REMARK    7  A    between atoms: N_20  and  C_19 
REMARK       I    between atoms: C_22  and  N_20 
ROOT
ATOM      1  C   LIG d   1      -5.798  92.792 117.769  0.00  0.00     0.161 C 
ATOM      2  C   LIG d   1      -6.865  92.006 117.301  0.00  0.00     0.016 C 
ATOM      3  C   LIG d   1      -6.687  90.788 116.606  0.00  0.00     0.038 C 
ATOM      4  C   LIG d   1      -5.424  90.194 116.463  0.00  0.00     0.028 C 
ATOM      5  C   LIG d   1      -4.277  91.198 116.476  0.00  0.00    -0.047 C 
ATOM      6  C   LIG d   1      -4.418  92.105 117.720  0.00  0.00     0.091 C 
ENDROOT
BRANCH   1   7
ATOM      7  O   LIG d   1      -6.081  93.254 119.105  0.00  0.00    -0.368 OA
BRANCH   7   8
ATOM      8  C   LIG d   1      -6.478  94.641 119.229  0.00  0.00     0.119 C 
BRANCH   8   9
ATOM      9  C   LIG d   1      -5.859  95.185 120.532  0.00  0.00     0.028 C 
ATOM     10  C   LIG d   1      -4.626  94.381 120.976  0.00  0.00     0.006 C 
ENDBRANCH   8   9
BRANCH   8  11
ATOM     11  C   LIG d   1      -7.993  94.773 119.415  0.00  0.00     0.028 C 
ATOM     12  C   LIG d   1      -8.704  95.292 118.155  0.00  0.00     0.006 C 
ENDBRANCH   8  11
ENDBRANCH   7   8
ENDBRANCH   1   7
BRANCH   6  13
ATOM     13  N   LIG d   1      -3.383  93.170 117.764  0.00  0.00    -0.311 N 
ATOM     14  C   LIG d   1      -2.223  93.039 118.405  0.00  0.00     0.210 C 
ATOM     15  C   LIG d   1      -1.307  94.266 118.343  0.00  0.00     0.109 C 
ATOM     16  O   LIG d   1      -1.851  92.012 118.992  0.00  0.00    -0.276 OA
ATOM     17  H   LIG d   1      -3.589  94.027 117.288  0.00  0.00     0.149 HD
ENDBRANCH   6  13
BRANCH   5  18
ATOM     18  N   LIG d   1      -3.015  90.434 116.457  0.00  0.00     0.381 N 
ATOM     19  H   LIG d   1      -2.244  91.056 116.318  0.00  0.00    -0.090 HD
ATOM     20  H   LIG d   1      -3.040  89.785 115.691  0.00  0.00    -0.090 HD
ATOM     21  H   LIG d   1      -2.903  89.941 117.316  0.00  0.00    -0.090 HD
ENDBRANCH   5  18
BRANCH   3  22
ATOM     22  C   LIG d   1      -7.777  90.171 116.011  0.00  0.00     0.382 C 
ATOM     23  O   LIG d   1      -8.129  89.026 116.382  0.00  0.00    -0.241 OA
ATOM     24  O   LIG d   1      -8.384  90.727 115.076  0.00  0.00    -0.241 OA
ENDBRANCH   3  22
TORSDOF 7
ENDMDL
MODEL 9
REMARK VINA RESULT:      -5.2     33.054     34.366
REMARK  7 active torsions:
REMARK  status: ('A' for Active; 'I' for Inactive)
REMARK    1  A    between atoms: C_2  and  C_3 
REMARK    2  A    between atoms: C_3  and  O_6 
REMARK    3  A    between atoms: C_3  and  C_4 
REMARK    4  A    between atoms: C_7  and  O_6 
REMARK    5  A    between atoms: C_9  and  C_10 
REMARK    6  A    between atoms: N_15  and  C_14 
REMARK    7  A    between atoms: N_20  and  C_19 
REMARK       I    between atoms: C_22  and  N_20 
ROOT
ATOM      1  C   LIG d   1      -5.556  91.967 119.103  0.00  0.00     0.161 C 
ATOM      2  C   LIG d   1      -4.745  91.152 118.296  0.00  0.00     0.016 C 
ATOM      3  C   LIG d   1      -4.925  91.013 116.900  0.00  0.00     0.038 C 
ATOM      4  C   LIG d   1      -5.840  91.804 116.189  0.00  0.00     0.028 C 
ATOM      5  C   LIG d   1      -7.022  92.270 117.032  0.00  0.00    -0.047 C 
ATOM      6  C   LIG d   1      -6.488  92.922 118.328  0.00  0.00     0.091 C 
ENDROOT
BRANCH   1   7
ATOM      7  O   LIG d   1      -4.737  92.708 120.028  0.00  0.00    -0.368 OA
BRANCH   7   8
ATOM      8  C   LIG d   1      -4.253  93.993 119.564  0.00  0.00     0.119 C 
BRANCH   8   9
ATOM      9  C   LIG d   1      -2.719  93.898 119.454  0.00  0.00     0.028 C 
ATOM     10  C   LIG d   1      -2.234  93.906 117.995  0.00  0.00     0.006 C 
ENDBRANCH   8   9
BRANCH   8  11
ATOM     11  C   LIG d   1      -4.519  95.094 120.595  0.00  0.00     0.028 C 
ATOM     12  C   LIG d   1      -4.647  96.487 119.959  0.00  0.00     0.006 C 
ENDBRANCH   8  11
ENDBRANCH   7   8
ENDBRANCH   1   7
BRANCH   6  13
ATOM     13  N   LIG d   1      -7.581  93.330 119.249  0.00  0.00    -0.311 N 
ATOM     14  C   LIG d   1      -8.075  94.566 119.298  0.00  0.00     0.210 C 
ATOM     15  C   LIG d   1      -9.184  94.778 120.333  0.00  0.00     0.109 C 
ATOM     16  O   LIG d   1      -7.722  95.498 118.560  0.00  0.00    -0.276 OA
ATOM     17  H   LIG d   1      -7.947  92.628 119.861  0.00  0.00     0.149 HD
ENDBRANCH   6  13
BRANCH   5  18
ATOM     18  N   LIG d   1      -7.821  93.194 116.206  0.00  0.00     0.381 N 
ATOM     19  H   LIG d   1      -7.866  92.856 115.266  0.00  0.00    -0.090 HD
ATOM     20  H   LIG d   1      -7.372  94.093 116.197  0.00  0.00    -0.090 HD
ATOM     21  H   LIG d   1      -8.740  93.278 116.581  0.00  0.00    -0.090 HD
ENDBRANCH   5  18
BRANCH   3  22
ATOM     22  C   LIG d   1      -4.211  90.047 116.208  0.00  0.00     0.382 C 
ATOM     23  O   LIG d   1      -3.018  89.809 116.514  0.00  0.00    -0.241 OA
ATOM     24  O   LIG d   1      -4.732  89.440 115.253  0.00  0.00    -0.241 OA
ENDBRANCH   3  22
TORSDOF 7
ENDMDL
