MODEL 1
REMARK VINA RESULT:      -5.9      0.000      0.000
REMARK  7 active torsions:
REMARK  status: ('A' for Active; 'I' for Inactive)
REMARK    1  A    between atoms: C_2  and  C_3 
REMARK    2  A    between atoms: C_3  and  O_6 
REMARK    3  A    between atoms: C_3  and  C_4 
REMARK    4  A    between atoms: C_7  and  O_6 
REMARK    5  A    between atoms: C_9  and  C_10 
REMARK    6  A    between atoms: N_15  and  C_14 
REMARK    7  A    between atoms: N_20  and  C_19 
REMARK       I    between atoms: C_22  and  N_20 
ROOT
ATOM      1  C   LIG d   1       1.336  81.901 112.411  0.00  0.00     0.161 C 
ATOM      2  C   LIG d   1       2.423  82.469 111.726  0.00  0.00     0.016 C 
ATOM      3  C   LIG d   1       2.655  82.282 110.344  0.00  0.00     0.038 C 
ATOM      4  C   LIG d   1       1.725  81.634 109.517  0.00  0.00     0.028 C 
ATOM      5  C   LIG d   1       0.867  80.612 110.256  0.00  0.00    -0.047 C 
ATOM      6  C   LIG d   1       0.251  81.283 111.505  0.00  0.00     0.091 C 
ENDROOT
BRANCH   1   7
ATOM      7  O   LIG d   1       0.753  82.878 113.297  0.00  0.00    -0.368 OA
BRANCH   7   8
ATOM      8  C   LIG d   1       0.952  84.266 112.934  0.00  0.00     0.119 C 
BRANCH   8   9
ATOM      9  C   LIG d   1       1.346  85.027 114.214  0.00  0.00     0.028 C 
ATOM     10  C   LIG d   1       2.796  85.539 114.170  0.00  0.00     0.006 C 
ENDBRANCH   8   9
BRANCH   8  11
ATOM     11  C   LIG d   1      -0.355  84.912 112.464  0.00  0.00     0.028 C 
ATOM     12  C   LIG d   1      -0.350  85.245 110.964  0.00  0.00     0.006 C 
ENDBRANCH   8  11
ENDBRANCH   7   8
ENDBRANCH   1   7
BRANCH   6  13
ATOM     13  N   LIG d   1      -0.536  80.330 112.330  0.00  0.00    -0.311 N 
ATOM     14  C   LIG d   1      -1.796  80.549 112.702  0.00  0.00     0.210 C 
ATOM     15  C   LIG d   1      -2.415  79.448 113.567  0.00  0.00     0.109 C 
ATOM     16  O   LIG d   1      -2.470  81.536 112.369  0.00  0.00    -0.276 OA
ATOM     17  H   LIG d   1      -0.076  79.488 112.618  0.00  0.00     0.149 HD
ENDBRANCH   6  13
BRANCH   5  18
ATOM     18  N   LIG d   1      -0.147  80.114 109.308  0.00  0.00     0.381 N 
ATOM     19  H   LIG d   1      -0.716  79.422 109.753  0.00  0.00    -0.090 HD
ATOM     20  H   LIG d   1       0.319  79.684 108.528  0.00  0.00    -0.090 HD
ATOM     21  H   LIG d   1      -0.716  80.868 108.990  0.00  0.00    -0.090 HD
ENDBRANCH   5  18
BRANCH   3  22
ATOM     22  C   LIG d   1       3.848  82.712 109.783  0.00  0.00     0.382 C 
ATOM     23  O   LIG d   1       4.653  81.877 109.306  0.00  0.00    -0.241 OA
ATOM     24  O   LIG d   1       4.149  83.921 109.788  0.00  0.00    -0.241 OA
ENDBRANCH   3  22
TORSDOF 7
ENDMDL
MODEL 2
REMARK VINA RESULT:      -5.5      1.531      4.933
REMARK  7 active torsions:
REMARK  status: ('A' for Active; 'I' for Inactive)
REMARK    1  A    between atoms: C_2  and  C_3 
REMARK    2  A    between atoms: C_3  and  O_6 
REMARK    3  A    between atoms: C_3  and  C_4 
REMARK    4  A    between atoms: C_7  and  O_6 
REMARK    5  A    between atoms: C_9  and  C_10 
REMARK    6  A    between atoms: N_15  and  C_14 
REMARK    7  A    between atoms: N_20  and  C_19 
REMARK       I    between atoms: C_22  and  N_20 
ROOT
ATOM      1  C   LIG d   1       0.403  82.761 112.027  0.00  0.00     0.161 C 
ATOM      2  C   LIG d   1      -0.823  82.350 112.578  0.00  0.00     0.016 C 
ATOM      3  C   LIG d   1      -1.395  81.079 112.340  0.00  0.00     0.038 C 
ATOM      4  C   LIG d   1      -0.703  80.071 111.653  0.00  0.00     0.028 C 
ATOM      5  C   LIG d   1       0.316  80.608 110.653  0.00  0.00    -0.047 C 
ATOM      6  C   LIG d   1       1.225  81.635 111.366  0.00  0.00     0.091 C 
ENDROOT
BRANCH   1   7
ATOM      7  O   LIG d   1       1.189  83.432 113.032  0.00  0.00    -0.368 OA
BRANCH   7   8
ATOM      8  C   LIG d   1       1.175  84.880 112.991  0.00  0.00     0.119 C 
BRANCH   8   9
ATOM      9  C   LIG d   1       0.838  85.299 111.546  0.00  0.00     0.028 C 
ATOM     10  C   LIG d   1      -0.410  86.193 111.470  0.00  0.00     0.006 C 
ENDBRANCH   8   9
BRANCH   8  11
ATOM     11  C   LIG d   1       2.565  85.459 113.268  0.00  0.00     0.028 C 
ATOM     12  C   LIG d   1       3.525  85.299 112.078  0.00  0.00     0.006 C 
ENDBRANCH   8  11
ENDBRANCH   7   8
ENDBRANCH   1   7
BRANCH   6  13
ATOM     13  N   LIG d   1       2.196  82.272 110.439  0.00  0.00    -0.311 N 
ATOM     14  C   LIG d   1       3.456  81.862 110.302  0.00  0.00     0.210 C 
ATOM     15  C   LIG d   1       4.294  82.670 109.307  0.00  0.00     0.109 C 
ATOM     16  O   LIG d   1       3.949  80.885 110.885  0.00  0.00    -0.276 OA
ATOM     17  H   LIG d   1       1.871  83.053 109.903  0.00  0.00     0.149 HD
ENDBRANCH   6  13
BRANCH   5  18
ATOM     18  N   LIG d   1       1.059  79.456 110.111  0.00  0.00     0.381 N 
ATOM     19  H   LIG d   1       1.656  79.757 109.367  0.00  0.00    -0.090 HD
ATOM     20  H   LIG d   1       0.403  78.791 109.739  0.00  0.00    -0.090 HD
ATOM     21  H   LIG d   1       1.601  79.031 110.831  0.00  0.00    -0.090 HD
ENDBRANCH   5  18
BRANCH   3  22
ATOM     22  C   LIG d   1      -2.691  80.821 112.758  0.00  0.00     0.382 C 
ATOM     23  O   LIG d   1      -3.420  81.760 113.161  0.00  0.00    -0.241 OA
ATOM     24  O   LIG d   1      -3.127  79.654 112.780  0.00  0.00    -0.241 OA
ENDBRANCH   3  22
TORSDOF 7
ENDMDL
MODEL 3
REMARK VINA RESULT:      -5.4      2.517      5.826
REMARK  7 active torsions:
REMARK  status: ('A' for Active; 'I' for Inactive)
REMARK    1  A    between atoms: C_2  and  C_3 
REMARK    2  A    between atoms: C_3  and  O_6 
REMARK    3  A    between atoms: C_3  and  C_4 
REMARK    4  A    between atoms: C_7  and  O_6 
REMARK    5  A    between atoms: C_9  and  C_10 
REMARK    6  A    between atoms: N_15  and  C_14 
REMARK    7  A    between atoms: N_20  and  C_19 
REMARK       I    between atoms: C_22  and  N_20 
ROOT
ATOM      1  C   LIG d   1       2.014  82.684 112.484  0.00  0.00     0.161 C 
ATOM      2  C   LIG d   1       0.891  81.840 112.479  0.00  0.00     0.016 C 
ATOM      3  C   LIG d   1      -0.422  82.294 112.214  0.00  0.00     0.038 C 
ATOM      4  C   LIG d   1      -0.681  83.604 111.785  0.00  0.00     0.028 C 
ATOM      5  C   LIG d   1       0.355  84.615 112.265  0.00  0.00    -0.047 C 
ATOM      6  C   LIG d   1       1.766  84.094 111.909  0.00  0.00     0.091 C 
ENDROOT
BRANCH   1   7
ATOM      7  O   LIG d   1       3.107  82.047 111.793  0.00  0.00    -0.368 OA
BRANCH   7   8
ATOM      8  C   LIG d   1       2.936  81.857 110.367  0.00  0.00     0.119 C 
BRANCH   8   9
ATOM      9  C   LIG d   1       2.578  80.376 110.137  0.00  0.00     0.028 C 
ATOM     10  C   LIG d   1       1.292  80.205 109.311  0.00  0.00     0.006 C 
ENDBRANCH   8   9
BRANCH   8  11
ATOM     11  C   LIG d   1       4.251  82.078 109.614  0.00  0.00     0.028 C 
ATOM     12  C   LIG d   1       4.648  83.561 109.530  0.00  0.00     0.006 C 
ENDBRANCH   8  11
ENDBRANCH   7   8
ENDBRANCH   1   7
BRANCH   6  13
ATOM     13  N   LIG d   1       2.843  84.983 112.418  0.00  0.00    -0.311 N 
ATOM     14  C   LIG d   1       3.292  86.046 111.752  0.00  0.00     0.210 C 
ATOM     15  C   LIG d   1       4.420  86.815 112.447  0.00  0.00     0.109 C 
ATOM     16  O   LIG d   1       2.840  86.444 110.668  0.00  0.00    -0.276 OA
ATOM     17  H   LIG d   1       3.244  84.752 113.305  0.00  0.00     0.149 HD
ENDBRANCH   6  13
BRANCH   5  18
ATOM     18  N   LIG d   1       0.040  85.910 111.633  0.00  0.00     0.381 N 
ATOM     19  H   LIG d   1       0.711  86.111 110.919  0.00  0.00    -0.090 HD
ATOM     20  H   LIG d   1       0.093  86.633 112.329  0.00  0.00    -0.090 HD
ATOM     21  H   LIG d   1      -0.876  85.884 111.240  0.00  0.00    -0.090 HD
ENDBRANCH   5  18
BRANCH   3  22
ATOM     22  C   LIG d   1      -1.497  81.442 112.417  0.00  0.00     0.382 C 
ATOM     23  O   LIG d   1      -1.437  80.252 112.024  0.00  0.00    -0.241 OA
ATOM     24  O   LIG d   1      -2.543  81.861 112.948  0.00  0.00    -0.241 OA
ENDBRANCH   3  22
TORSDOF 7
ENDMDL
MODEL 4
REMARK VINA RESULT:      -5.4      2.560      4.621
REMARK  7 active torsions:
REMARK  status: ('A' for Active; 'I' for Inactive)
REMARK    1  A    between atoms: C_2  and  C_3 
REMARK    2  A    between atoms: C_3  and  O_6 
REMARK    3  A    between atoms: C_3  and  C_4 
REMARK    4  A    between atoms: C_7  and  O_6 
REMARK    5  A    between atoms: C_9  and  C_10 
REMARK    6  A    between atoms: N_15  and  C_14 
REMARK    7  A    between atoms: N_20  and  C_19 
REMARK       I    between atoms: C_22  and  N_20 
ROOT
ATOM      1  C   LIG d   1       3.167  83.128 111.301  0.00  0.00     0.161 C 
ATOM      2  C   LIG d   1       2.538  82.254 110.399  0.00  0.00     0.016 C 
ATOM      3  C   LIG d   1       1.573  81.296 110.787  0.00  0.00     0.038 C 
ATOM      4  C   LIG d   1       1.057  81.250 112.090  0.00  0.00     0.028 C 
ATOM      5  C   LIG d   1       2.027  81.775 113.144  0.00  0.00    -0.047 C 
ATOM      6  C   LIG d   1       2.536  83.167 112.709  0.00  0.00     0.091 C 
ENDROOT
BRANCH   1   7
ATOM      7  O   LIG d   1       3.222  84.454 110.739  0.00  0.00    -0.368 OA
BRANCH   7   8
ATOM      8  C   LIG d   1       2.090  85.313 111.022  0.00  0.00     0.119 C 
BRANCH   8   9
ATOM      9  C   LIG d   1       1.419  85.651 109.677  0.00  0.00     0.028 C 
ATOM     10  C   LIG d   1      -0.113  85.729 109.789  0.00  0.00     0.006 C 
ENDBRANCH   8   9
BRANCH   8  11
ATOM     11  C   LIG d   1       2.542  86.658 111.599  0.00  0.00     0.028 C 
ATOM     12  C   LIG d   1       4.064  86.743 111.792  0.00  0.00     0.006 C 
ENDBRANCH   8  11
ENDBRANCH   7   8
ENDBRANCH   1   7
BRANCH   6  13
ATOM     13  N   LIG d   1       3.554  83.716 113.643  0.00  0.00    -0.311 N 
ATOM     14  C   LIG d   1       3.262  84.558 114.633  0.00  0.00     0.210 C 
ATOM     15  C   LIG d   1       4.462  85.018 115.465  0.00  0.00     0.109 C 
ATOM     16  O   LIG d   1       2.118  84.942 114.920  0.00  0.00    -0.276 OA
ATOM     17  H   LIG d   1       4.503  83.432 113.501  0.00  0.00     0.149 HD
ENDBRANCH   6  13
BRANCH   5  18
ATOM     18  N   LIG d   1       1.312  81.798 114.435  0.00  0.00     0.381 N 
ATOM     19  H   LIG d   1       1.443  82.685 114.879  0.00  0.00    -0.090 HD
ATOM     20  H   LIG d   1       1.695  81.086 115.031  0.00  0.00    -0.090 HD
ATOM     21  H   LIG d   1       0.340  81.632 114.289  0.00  0.00    -0.090 HD
ENDBRANCH   5  18
BRANCH   3  22
ATOM     22  C   LIG d   1       1.144  80.345 109.874  0.00  0.00     0.382 C 
ATOM     23  O   LIG d   1       1.948  79.486 109.438  0.00  0.00    -0.241 OA
ATOM     24  O   LIG d   1      -0.026  80.362 109.447  0.00  0.00    -0.241 OA
ENDBRANCH   3  22
TORSDOF 7
ENDMDL
MODEL 5
REMARK VINA RESULT:      -5.4      3.130      5.531
REMARK  7 active torsions:
REMARK  status: ('A' for Active; 'I' for Inactive)
REMARK    1  A    between atoms: C_2  and  C_3 
REMARK    2  A    between atoms: C_3  and  O_6 
REMARK    3  A    between atoms: C_3  and  C_4 
REMARK    4  A    between atoms: C_7  and  O_6 
REMARK    5  A    between atoms: C_9  and  C_10 
REMARK    6  A    between atoms: N_15  and  C_14 
REMARK    7  A    between atoms: N_20  and  C_19 
REMARK       I    between atoms: C_22  and  N_20 
ROOT
ATOM      1  C   LIG d   1       3.471  84.988 111.702  0.00  0.00     0.161 C 
ATOM      2  C   LIG d   1       4.194  86.191 111.760  0.00  0.00     0.016 C 
ATOM      3  C   LIG d   1       4.524  86.842 112.971  0.00  0.00     0.038 C 
ATOM      4  C   LIG d   1       4.283  86.251 114.220  0.00  0.00     0.028 C 
ATOM      5  C   LIG d   1       3.108  85.279 114.214  0.00  0.00    -0.047 C 
ATOM      6  C   LIG d   1       3.297  84.271 113.057  0.00  0.00     0.091 C 
ENDROOT
BRANCH   1   7
ATOM      7  O   LIG d   1       4.077  84.100 110.741  0.00  0.00    -0.368 OA
BRANCH   7   8
ATOM      8  C   LIG d   1       3.294  83.814 109.556  0.00  0.00     0.119 C 
BRANCH   8   9
ATOM      9  C   LIG d   1       2.021  84.678 109.622  0.00  0.00     0.028 C 
ATOM     10  C   LIG d   1       0.740  83.831 109.713  0.00  0.00     0.006 C 
ENDBRANCH   8   9
BRANCH   8  11
ATOM     11  C   LIG d   1       2.801  82.364 109.552  0.00  0.00     0.028 C 
ATOM     12  C   LIG d   1       3.859  81.373 110.060  0.00  0.00     0.006 C 
ENDBRANCH   8  11
ENDBRANCH   7   8
ENDBRANCH   1   7
BRANCH   6  13
ATOM     13  N   LIG d   1       2.149  83.336 112.927  0.00  0.00    -0.311 N 
ATOM     14  C   LIG d   1       2.152  82.099 113.421  0.00  0.00     0.210 C 
ATOM     15  C   LIG d   1       0.875  81.295 113.158  0.00  0.00     0.109 C 
ATOM     16  O   LIG d   1       3.079  81.602 114.079  0.00  0.00    -0.276 OA
ATOM     17  H   LIG d   1       1.344  83.668 112.435  0.00  0.00     0.149 HD
ENDBRANCH   6  13
BRANCH   5  18
ATOM     18  N   LIG d   1       3.056  84.634 115.540  0.00  0.00     0.381 N 
ATOM     19  H   LIG d   1       3.968  84.309 115.795  0.00  0.00    -0.090 HD
ATOM     20  H   LIG d   1       2.441  83.842 115.492  0.00  0.00    -0.090 HD
ATOM     21  H   LIG d   1       2.724  85.281 116.221  0.00  0.00    -0.090 HD
ENDBRANCH   5  18
BRANCH   3  22
ATOM     22  C   LIG d   1       5.066  88.118 112.940  0.00  0.00     0.382 C 
ATOM     23  O   LIG d   1       4.463  89.070 113.491  0.00  0.00    -0.241 OA
ATOM     24  O   LIG d   1       6.129  88.337 112.328  0.00  0.00    -0.241 OA
ENDBRANCH   3  22
TORSDOF 7
ENDMDL
MODEL 6
REMARK VINA RESULT:      -5.3      4.532      7.182
REMARK  7 active torsions:
REMARK  status: ('A' for Active; 'I' for Inactive)
REMARK    1  A    between atoms: C_2  and  C_3 
REMARK    2  A    between atoms: C_3  and  O_6 
REMARK    3  A    between atoms: C_3  and  C_4 
REMARK    4  A    between atoms: C_7  and  O_6 
REMARK    5  A    between atoms: C_9  and  C_10 
REMARK    6  A    between atoms: N_15  and  C_14 
REMARK    7  A    between atoms: N_20  and  C_19 
REMARK       I    between atoms: C_22  and  N_20 
ROOT
ATOM      1  C   LIG d   1       2.893  86.733 113.997  0.00  0.00     0.161 C 
ATOM      2  C   LIG d   1       2.787  87.634 115.070  0.00  0.00     0.016 C 
ATOM      3  C   LIG d   1       3.740  88.644 115.335  0.00  0.00     0.038 C 
ATOM      4  C   LIG d   1       4.792  88.922 114.450  0.00  0.00     0.028 C 
ATOM      5  C   LIG d   1       5.223  87.715 113.624  0.00  0.00    -0.047 C 
ATOM      6  C   LIG d   1       3.975  87.092 112.957  0.00  0.00     0.091 C 
ENDROOT
BRANCH   1   7
ATOM      7  O   LIG d   1       1.611  86.585 113.355  0.00  0.00    -0.368 OA
BRANCH   7   8
ATOM      8  C   LIG d   1       0.828  85.434 113.755  0.00  0.00     0.119 C 
BRANCH   8   9
ATOM      9  C   LIG d   1       1.814  84.303 114.109  0.00  0.00     0.028 C 
ATOM     10  C   LIG d   1       1.696  83.102 113.156  0.00  0.00     0.006 C 
ENDBRANCH   8   9
BRANCH   8  11
ATOM     11  C   LIG d   1      -0.005  84.894 112.588  0.00  0.00     0.028 C 
ATOM     12  C   LIG d   1      -0.481  86.001 111.634  0.00  0.00     0.006 C 
ENDBRANCH   8  11
ENDBRANCH   7   8
ENDBRANCH   1   7
BRANCH   6  13
ATOM     13  N   LIG d   1       4.296  85.855 112.197  0.00  0.00    -0.311 N 
ATOM     14  C   LIG d   1       3.699  85.521 111.055  0.00  0.00     0.210 C 
ATOM     15  C   LIG d   1       4.165  84.194 110.446  0.00  0.00     0.109 C 
ATOM     16  O   LIG d   1       2.852  86.213 110.471  0.00  0.00    -0.276 OA
ATOM     17  H   LIG d   1       4.995  85.251 112.583  0.00  0.00     0.149 HD
ENDBRANCH   6  13
BRANCH   5  18
ATOM     18  N   LIG d   1       6.229  88.177 112.649  0.00  0.00     0.381 N 
ATOM     19  H   LIG d   1       5.885  88.981 112.163  0.00  0.00    -0.090 HD
ATOM     20  H   LIG d   1       6.391  87.448 111.978  0.00  0.00    -0.090 HD
ATOM     21  H   LIG d   1       7.079  88.402 113.118  0.00  0.00    -0.090 HD
ENDBRANCH   5  18
BRANCH   3  22
ATOM     22  C   LIG d   1       3.667  89.364 116.518  0.00  0.00     0.382 C 
ATOM     23  O   LIG d   1       4.035  88.838 117.596  0.00  0.00    -0.241 OA
ATOM     24  O   LIG d   1       3.196  90.517 116.528  0.00  0.00    -0.241 OA
ENDBRANCH   3  22
TORSDOF 7
ENDMDL
MODEL 7
REMARK VINA RESULT:      -5.2      4.250      6.584
REMARK  7 active torsions:
REMARK  status: ('A' for Active; 'I' for Inactive)
REMARK    1  A    between atoms: C_2  and  C_3 
REMARK    2  A    between atoms: C_3  and  O_6 
REMARK    3  A    between atoms: C_3  and  C_4 
REMARK    4  A    between atoms: C_7  and  O_6 
REMARK    5  A    between atoms: C_9  and  C_10 
REMARK    6  A    between atoms: N_15  and  C_14 
REMARK    7  A    between atoms: N_20  and  C_19 
REMARK       I    between atoms: C_22  and  N_20 
ROOT
ATOM      1  C   LIG d   1       3.047  85.701 113.822  0.00  0.00     0.161 C 
ATOM      2  C   LIG d   1       3.417  87.014 113.486  0.00  0.00     0.016 C 
ATOM      3  C   LIG d   1       4.485  87.704 114.105  0.00  0.00     0.038 C 
ATOM      4  C   LIG d   1       5.356  87.069 115.002  0.00  0.00     0.028 C 
ATOM      5  C   LIG d   1       4.716  85.902 115.746  0.00  0.00    -0.047 C 
ATOM      6  C   LIG d   1       4.056  84.954 114.719  0.00  0.00     0.091 C 
ENDROOT
BRANCH   1   7
ATOM      7  O   LIG d   1       2.787  84.944 112.622  0.00  0.00    -0.368 OA
BRANCH   7   8
ATOM      8  C   LIG d   1       3.299  85.508 111.390  0.00  0.00     0.119 C 
BRANCH   8   9
ATOM      9  C   LIG d   1       2.165  85.449 110.348  0.00  0.00     0.028 C 
ATOM     10  C   LIG d   1       0.940  86.280 110.767  0.00  0.00     0.006 C 
ENDBRANCH   8   9
BRANCH   8  11
ATOM     11  C   LIG d   1       4.427  84.650 110.810  0.00  0.00     0.028 C 
ATOM     12  C   LIG d   1       3.935  83.663 109.740  0.00  0.00     0.006 C 
ENDBRANCH   8  11
ENDBRANCH   7   8
ENDBRANCH   1   7
BRANCH   6  13
ATOM     13  N   LIG d   1       3.333  83.830 115.369  0.00  0.00    -0.311 N 
ATOM     14  C   LIG d   1       3.918  82.684 115.715  0.00  0.00     0.210 C 
ATOM     15  C   LIG d   1       2.987  81.649 116.353  0.00  0.00     0.109 C 
ATOM     16  O   LIG d   1       5.127  82.439 115.582  0.00  0.00    -0.276 OA
ATOM     17  H   LIG d   1       2.355  83.955 115.542  0.00  0.00     0.149 HD
ENDBRANCH   6  13
BRANCH   5  18
ATOM     18  N   LIG d   1       5.771  85.248 116.542  0.00  0.00     0.381 N 
ATOM     19  H   LIG d   1       5.417  85.016 117.449  0.00  0.00    -0.090 HD
ATOM     20  H   LIG d   1       6.536  85.889 116.657  0.00  0.00    -0.090 HD
ATOM     21  H   LIG d   1       6.085  84.423 116.080  0.00  0.00    -0.090 HD
ENDBRANCH   5  18
BRANCH   3  22
ATOM     22  C   LIG d   1       4.665  89.056 113.857  0.00  0.00     0.382 C 
ATOM     23  O   LIG d   1       5.044  89.441 112.724  0.00  0.00    -0.241 OA
ATOM     24  O   LIG d   1       4.496  89.892 114.764  0.00  0.00    -0.241 OA
ENDBRANCH   3  22
TORSDOF 7
ENDMDL
MODEL 8
REMARK VINA RESULT:      -5.0      3.262      4.720
REMARK  7 active torsions:
REMARK  status: ('A' for Active; 'I' for Inactive)
REMARK    1  A    between atoms: C_2  and  C_3 
REMARK    2  A    between atoms: C_3  and  O_6 
REMARK    3  A    between atoms: C_3  and  C_4 
REMARK    4  A    between atoms: C_7  and  O_6 
REMARK    5  A    between atoms: C_9  and  C_10 
REMARK    6  A    between atoms: N_15  and  C_14 
REMARK    7  A    between atoms: N_20  and  C_19 
REMARK       I    between atoms: C_22  and  N_20 
ROOT
ATOM      1  C   LIG d   1       3.917  84.190 112.020  0.00  0.00     0.161 C 
ATOM      2  C   LIG d   1       4.481  85.367 112.540  0.00  0.00     0.016 C 
ATOM      3  C   LIG d   1       3.988  86.660 112.251  0.00  0.00     0.038 C 
ATOM      4  C   LIG d   1       2.796  86.857 111.538  0.00  0.00     0.028 C 
ATOM      5  C   LIG d   1       2.475  85.722 110.570  0.00  0.00    -0.047 C 
ATOM      6  C   LIG d   1       2.550  84.378 111.330  0.00  0.00     0.091 C 
ENDROOT
BRANCH   1   7
ATOM      7  O   LIG d   1       3.822  83.194 113.057  0.00  0.00    -0.368 OA
BRANCH   7   8
ATOM      8  C   LIG d   1       3.315  83.651 114.335  0.00  0.00     0.119 C 
BRANCH   8   9
ATOM      9  C   LIG d   1       4.289  83.157 115.423  0.00  0.00     0.028 C 
ATOM     10  C   LIG d   1       5.181  84.286 115.967  0.00  0.00     0.006 C 
ENDBRANCH   8   9
BRANCH   8  11
ATOM     11  C   LIG d   1       1.971  82.997 114.668  0.00  0.00     0.028 C 
ATOM     12  C   LIG d   1       1.725  81.704 113.875  0.00  0.00     0.006 C 
ENDBRANCH   8  11
ENDBRANCH   7   8
ENDBRANCH   1   7
BRANCH   6  13
ATOM     13  N   LIG d   1       2.331  83.210 110.438  0.00  0.00    -0.311 N 
ATOM     14  C   LIG d   1       1.140  82.644 110.250  0.00  0.00     0.210 C 
ATOM     15  C   LIG d   1       1.140  81.438 109.305  0.00  0.00     0.109 C 
ATOM     16  O   LIG d   1       0.079  83.045 110.751  0.00  0.00    -0.276 OA
ATOM     17  H   LIG d   1       3.133  82.839 109.967  0.00  0.00     0.149 HD
ENDBRANCH   6  13
BRANCH   5  18
ATOM     18  N   LIG d   1       1.142  85.989 109.997  0.00  0.00     0.381 N 
ATOM     19  H   LIG d   1       1.076  86.950 109.726  0.00  0.00    -0.090 HD
ATOM     20  H   LIG d   1       0.445  85.812 110.699  0.00  0.00    -0.090 HD
ATOM     21  H   LIG d   1       0.987  85.402 109.208  0.00  0.00    -0.090 HD
ENDBRANCH   5  18
BRANCH   3  22
ATOM     22  C   LIG d   1       4.712  87.775 112.644  0.00  0.00     0.382 C 
ATOM     23  O   LIG d   1       5.891  87.931 112.243  0.00  0.00    -0.241 OA
ATOM     24  O   LIG d   1       4.217  88.605 113.430  0.00  0.00    -0.241 OA
ENDBRANCH   3  22
TORSDOF 7
ENDMDL
MODEL 9
REMARK VINA RESULT:      -5.0      5.613      7.776
REMARK  7 active torsions:
REMARK  status: ('A' for Active; 'I' for Inactive)
REMARK    1  A    between atoms: C_2  and  C_3 
REMARK    2  A    between atoms: C_3  and  O_6 
REMARK    3  A    between atoms: C_3  and  C_4 
REMARK    4  A    between atoms: C_7  and  O_6 
REMARK    5  A    between atoms: C_9  and  C_10 
REMARK    6  A    between atoms: N_15  and  C_14 
REMARK    7  A    between atoms: N_20  and  C_19 
REMARK       I    between atoms: C_22  and  N_20 
ROOT
ATOM      1  C   LIG d   1       3.422  87.279 114.908  0.00  0.00     0.161 C 
ATOM      2  C   LIG d   1       2.583  86.842 113.870  0.00  0.00     0.016 C 
ATOM      3  C   LIG d   1       2.964  86.843 112.508  0.00  0.00     0.038 C 
ATOM      4  C   LIG d   1       4.274  87.143 112.105  0.00  0.00     0.028 C 
ATOM      5  C   LIG d   1       5.005  88.074 113.067  0.00  0.00    -0.047 C 
ATOM      6  C   LIG d   1       4.893  87.505 114.500  0.00  0.00     0.091 C 
ENDROOT
BRANCH   1   7
ATOM      7  O   LIG d   1       3.345  86.362 116.017  0.00  0.00    -0.368 OA
BRANCH   7   8
ATOM      8  C   LIG d   1       2.693  86.859 117.212  0.00  0.00     0.119 C 
BRANCH   8   9
ATOM      9  C   LIG d   1       1.626  85.826 117.621  0.00  0.00     0.028 C 
ATOM     10  C   LIG d   1       1.781  84.493 116.870  0.00  0.00     0.006 C 
ENDBRANCH   8   9
BRANCH   8  11
ATOM     11  C   LIG d   1       1.920  88.150 116.928  0.00  0.00     0.028 C 
ATOM     12  C   LIG d   1       0.427  88.039 117.275  0.00  0.00     0.006 C 
ENDBRANCH   8  11
ENDBRANCH   7   8
ENDBRANCH   1   7
BRANCH   6  13
ATOM     13  N   LIG d   1       5.509  88.398 115.515  0.00  0.00    -0.311 N 
ATOM     14  C   LIG d   1       5.116  89.654 115.722  0.00  0.00     0.210 C 
ATOM     15  C   LIG d   1       5.899  90.407 116.802  0.00  0.00     0.109 C 
ATOM     16  O   LIG d   1       4.171  90.205 115.137  0.00  0.00    -0.276 OA
ATOM     17  H   LIG d   1       6.262  88.022 116.057  0.00  0.00     0.149 HD
ENDBRANCH   6  13
BRANCH   5  18
ATOM     18  N   LIG d   1       6.399  88.192 112.599  0.00  0.00     0.381 N 
ATOM     19  H   LIG d   1       6.510  89.036 112.073  0.00  0.00    -0.090 HD
ATOM     20  H   LIG d   1       6.607  87.415 111.997  0.00  0.00    -0.090 HD
ATOM     21  H   LIG d   1       7.021  88.194 113.378  0.00  0.00    -0.090 HD
ENDBRANCH   5  18
BRANCH   3  22
ATOM     22  C   LIG d   1       2.018  86.581 111.529  0.00  0.00     0.382 C 
ATOM     23  O   LIG d   1       2.384  86.312 110.360  0.00  0.00    -0.241 OA
ATOM     24  O   LIG d   1       0.802  86.653 111.790  0.00  0.00    -0.241 OA
ENDBRANCH   3  22
TORSDOF 7
ENDMDL
