MODEL 1
REMARK VINA RESULT:      -6.3      0.000      0.000
REMARK  7 active torsions:
REMARK  status: ('A' for Active; 'I' for Inactive)
REMARK    1  A    between atoms: C_2  and  C_3 
REMARK    2  A    between atoms: C_3  and  O_6 
REMARK    3  A    between atoms: C_3  and  C_4 
REMARK    4  A    between atoms: C_7  and  O_6 
REMARK    5  A    between atoms: C_9  and  C_10 
REMARK    6  A    between atoms: N_15  and  C_14 
REMARK    7  A    between atoms: N_20  and  C_19 
REMARK       I    between atoms: C_22  and  N_20 
ROOT
ATOM      1  C   LIG d   1       0.296  83.844 112.610  0.00  0.00     0.161 C 
ATOM      2  C   LIG d   1       1.128  84.785 111.980  0.00  0.00     0.016 C 
ATOM      3  C   LIG d   1       1.600  84.642 110.655  0.00  0.00     0.038 C 
ATOM      4  C   LIG d   1       1.145  83.617 109.812  0.00  0.00     0.028 C 
ATOM      5  C   LIG d   1       0.700  82.368 110.564  0.00  0.00    -0.047 C 
ATOM      6  C   LIG d   1      -0.301  82.776 111.669  0.00  0.00     0.091 C 
ENDROOT
BRANCH   1   7
ATOM      7  O   LIG d   1      -0.755  84.524 113.326  0.00  0.00    -0.368 OA
BRANCH   7   8
ATOM      8  C   LIG d   1      -0.598  84.602 114.764  0.00  0.00     0.119 C 
BRANCH   8   9
ATOM      9  C   LIG d   1      -1.813  83.902 115.401  0.00  0.00     0.028 C 
ATOM     10  C   LIG d   1      -1.413  82.959 116.548  0.00  0.00     0.006 C 
ENDBRANCH   8   9
BRANCH   8  11
ATOM     11  C   LIG d   1      -0.662  86.052 115.253  0.00  0.00     0.028 C 
ATOM     12  C   LIG d   1       0.715  86.612 115.642  0.00  0.00     0.006 C 
ENDBRANCH   8  11
ENDBRANCH   7   8
ENDBRANCH   1   7
BRANCH   6  13
ATOM     13  N   LIG d   1      -0.722  81.623 112.507  0.00  0.00    -0.311 N 
ATOM     14  C   LIG d   1      -1.996  81.305 112.729  0.00  0.00     0.210 C 
ATOM     15  C   LIG d   1      -2.210  80.091 113.638  0.00  0.00     0.109 C 
ATOM     16  O   LIG d   1      -2.969  81.893 112.232  0.00  0.00    -0.276 OA
ATOM     17  H   LIG d   1       0.004  81.073 112.923  0.00  0.00     0.149 HD
ENDBRANCH   6  13
BRANCH   5  18
ATOM     18  N   LIG d   1       0.123  81.436 109.577  0.00  0.00     0.381 N 
ATOM     19  H   LIG d   1      -0.510  81.927 108.977  0.00  0.00    -0.090 HD
ATOM     20  H   LIG d   1      -0.393  80.724 110.064  0.00  0.00    -0.090 HD
ATOM     21  H   LIG d   1       0.848  81.019 109.036  0.00  0.00    -0.090 HD
ENDBRANCH   5  18
BRANCH   3  22
ATOM     22  C   LIG d   1       2.568  85.510 110.173  0.00  0.00     0.382 C 
ATOM     23  O   LIG d   1       3.687  85.066 109.819  0.00  0.00    -0.241 OA
ATOM     24  O   LIG d   1       2.353  86.736 110.131  0.00  0.00    -0.241 OA
ENDBRANCH   3  22
TORSDOF 7
ENDMDL
MODEL 2
REMARK VINA RESULT:      -6.1      0.984      1.772
REMARK  7 active torsions:
REMARK  status: ('A' for Active; 'I' for Inactive)
REMARK    1  A    between atoms: C_2  and  C_3 
REMARK    2  A    between atoms: C_3  and  O_6 
REMARK    3  A    between atoms: C_3  and  C_4 
REMARK    4  A    between atoms: C_7  and  O_6 
REMARK    5  A    between atoms: C_9  and  C_10 
REMARK    6  A    between atoms: N_15  and  C_14 
REMARK    7  A    between atoms: N_20  and  C_19 
REMARK       I    between atoms: C_22  and  N_20 
ROOT
ATOM      1  C   LIG d   1      -0.001  84.337 113.198  0.00  0.00     0.161 C 
ATOM      2  C   LIG d   1       0.745  85.419 112.701  0.00  0.00     0.016 C 
ATOM      3  C   LIG d   1       1.251  85.475 111.382  0.00  0.00     0.038 C 
ATOM      4  C   LIG d   1       0.914  84.514 110.417  0.00  0.00     0.028 C 
ATOM      5  C   LIG d   1       0.582  83.150 111.011  0.00  0.00    -0.047 C 
ATOM      6  C   LIG d   1      -0.473  83.331 112.127  0.00  0.00     0.091 C 
ENDROOT
BRANCH   1   7
ATOM      7  O   LIG d   1      -1.125  84.825 113.956  0.00  0.00    -0.368 OA
BRANCH   7   8
ATOM      8  C   LIG d   1      -1.073  84.604 115.387  0.00  0.00     0.119 C 
BRANCH   8   9
ATOM      9  C   LIG d   1       0.310  84.006 115.713  0.00  0.00     0.028 C 
ATOM     10  C   LIG d   1       1.120  84.891 116.675  0.00  0.00     0.006 C 
ENDBRANCH   8   9
BRANCH   8  11
ATOM     11  C   LIG d   1      -2.087  83.543 115.824  0.00  0.00     0.028 C 
ATOM     12  C   LIG d   1      -1.437  82.373 116.579  0.00  0.00     0.006 C 
ENDBRANCH   8  11
ENDBRANCH   7   8
ENDBRANCH   1   7
BRANCH   6  13
ATOM     13  N   LIG d   1      -0.792  82.055 112.818  0.00  0.00    -0.311 N 
ATOM     14  C   LIG d   1      -2.000  81.495 112.802  0.00  0.00     0.210 C 
ATOM     15  C   LIG d   1      -2.119  80.190 113.596  0.00  0.00     0.109 C 
ATOM     16  O   LIG d   1      -2.977  81.938 112.180  0.00  0.00    -0.276 OA
ATOM     17  H   LIG d   1      -0.049  81.611 113.322  0.00  0.00     0.149 HD
ENDBRANCH   6  13
BRANCH   5  18
ATOM     18  N   LIG d   1       0.116  82.286 109.910  0.00  0.00     0.381 N 
ATOM     19  H   LIG d   1      -0.639  82.730 109.427  0.00  0.00    -0.090 HD
ATOM     20  H   LIG d   1      -0.222  81.421 110.296  0.00  0.00    -0.090 HD
ATOM     21  H   LIG d   1       0.864  82.106 109.277  0.00  0.00    -0.090 HD
ENDBRANCH   5  18
BRANCH   3  22
ATOM     22  C   LIG d   1       2.137  86.481 111.028  0.00  0.00     0.382 C 
ATOM     23  O   LIG d   1       2.773  86.406 109.949  0.00  0.00    -0.241 OA
ATOM     24  O   LIG d   1       2.341  87.441 111.795  0.00  0.00    -0.241 OA
ENDBRANCH   3  22
TORSDOF 7
ENDMDL
MODEL 3
REMARK VINA RESULT:      -6.0      2.163      5.173
REMARK  7 active torsions:
REMARK  status: ('A' for Active; 'I' for Inactive)
REMARK    1  A    between atoms: C_2  and  C_3 
REMARK    2  A    between atoms: C_3  and  O_6 
REMARK    3  A    between atoms: C_3  and  C_4 
REMARK    4  A    between atoms: C_7  and  O_6 
REMARK    5  A    between atoms: C_9  and  C_10 
REMARK    6  A    between atoms: N_15  and  C_14 
REMARK    7  A    between atoms: N_20  and  C_19 
REMARK       I    between atoms: C_22  and  N_20 
ROOT
ATOM      1  C   LIG d   1       0.602  83.425 112.022  0.00  0.00     0.161 C 
ATOM      2  C   LIG d   1      -0.625  83.018 112.571  0.00  0.00     0.016 C 
ATOM      3  C   LIG d   1      -1.165  81.723 112.396  0.00  0.00     0.038 C 
ATOM      4  C   LIG d   1      -0.436  80.693 111.783  0.00  0.00     0.028 C 
ATOM      5  C   LIG d   1       0.592  81.195 110.774  0.00  0.00    -0.047 C 
ATOM      6  C   LIG d   1       1.463  82.282 111.445  0.00  0.00     0.091 C 
ENDROOT
BRANCH   1   7
ATOM      7  O   LIG d   1       1.352  84.170 113.002  0.00  0.00    -0.368 OA
BRANCH   7   8
ATOM      8  C   LIG d   1       1.340  85.611 112.852  0.00  0.00     0.119 C 
BRANCH   8   9
ATOM      9  C   LIG d   1       2.692  86.024 112.239  0.00  0.00     0.028 C 
ATOM     10  C   LIG d   1       2.538  86.630 110.834  0.00  0.00     0.006 C 
ENDBRANCH   8   9
BRANCH   8  11
ATOM     11  C   LIG d   1       1.281  86.313 114.213  0.00  0.00     0.028 C 
ATOM     12  C   LIG d   1       0.095  85.846 115.072  0.00  0.00     0.006 C 
ENDBRANCH   8  11
ENDBRANCH   7   8
ENDBRANCH   1   7
BRANCH   6  13
ATOM     13  N   LIG d   1       2.440  82.886 110.502  0.00  0.00    -0.311 N 
ATOM     14  C   LIG d   1       3.671  82.413 110.318  0.00  0.00     0.210 C 
ATOM     15  C   LIG d   1       4.523  83.197 109.315  0.00  0.00     0.109 C 
ATOM     16  O   LIG d   1       4.128  81.399 110.866  0.00  0.00    -0.276 OA
ATOM     17  H   LIG d   1       2.141  83.695 109.992  0.00  0.00     0.149 HD
ENDBRANCH   6  13
BRANCH   5  18
ATOM     18  N   LIG d   1       1.372  80.030 110.315  0.00  0.00     0.381 N 
ATOM     19  H   LIG d   1       0.797  79.440 109.748  0.00  0.00    -0.090 HD
ATOM     20  H   LIG d   1       1.672  79.504 111.117  0.00  0.00    -0.090 HD
ATOM     21  H   LIG d   1       2.164  80.335 109.793  0.00  0.00    -0.090 HD
ENDBRANCH   5  18
BRANCH   3  22
ATOM     22  C   LIG d   1      -2.464  81.459 112.802  0.00  0.00     0.382 C 
ATOM     23  O   LIG d   1      -3.427  81.759 112.056  0.00  0.00    -0.241 OA
ATOM     24  O   LIG d   1      -2.687  80.965 113.924  0.00  0.00    -0.241 OA
ENDBRANCH   3  22
TORSDOF 7
ENDMDL
MODEL 4
REMARK VINA RESULT:      -5.9      2.848      6.005
REMARK  7 active torsions:
REMARK  status: ('A' for Active; 'I' for Inactive)
REMARK    1  A    between atoms: C_2  and  C_3 
REMARK    2  A    between atoms: C_3  and  O_6 
REMARK    3  A    between atoms: C_3  and  C_4 
REMARK    4  A    between atoms: C_7  and  O_6 
REMARK    5  A    between atoms: C_9  and  C_10 
REMARK    6  A    between atoms: N_15  and  C_14 
REMARK    7  A    between atoms: N_20  and  C_19 
REMARK       I    between atoms: C_22  and  N_20 
ROOT
ATOM      1  C   LIG d   1       2.474  83.713 112.953  0.00  0.00     0.161 C 
ATOM      2  C   LIG d   1       1.638  82.827 112.253  0.00  0.00     0.016 C 
ATOM      3  C   LIG d   1       0.236  82.988 112.161  0.00  0.00     0.038 C 
ATOM      4  C   LIG d   1      -0.411  84.138 112.639  0.00  0.00     0.028 C 
ATOM      5  C   LIG d   1       0.325  84.811 113.792  0.00  0.00    -0.047 C 
ATOM      6  C   LIG d   1       1.800  85.031 113.387  0.00  0.00     0.091 C 
ENDROOT
BRANCH   1   7
ATOM      7  O   LIG d   1       3.656  83.986 112.176  0.00  0.00    -0.368 OA
BRANCH   7   8
ATOM      8  C   LIG d   1       3.446  84.244 110.766  0.00  0.00     0.119 C 
BRANCH   8   9
ATOM      9  C   LIG d   1       4.581  83.544 109.993  0.00  0.00     0.028 C 
ATOM     10  C   LIG d   1       4.178  82.145 109.497  0.00  0.00     0.006 C 
ENDBRANCH   8   9
BRANCH   8  11
ATOM     11  C   LIG d   1       3.596  85.734 110.444  0.00  0.00     0.028 C 
ATOM     12  C   LIG d   1       4.582  86.450 111.380  0.00  0.00     0.006 C 
ENDBRANCH   8  11
ENDBRANCH   7   8
ENDBRANCH   1   7
BRANCH   6  13
ATOM     13  N   LIG d   1       2.611  85.609 114.490  0.00  0.00    -0.311 N 
ATOM     14  C   LIG d   1       2.784  86.918 114.665  0.00  0.00     0.210 C 
ATOM     15  C   LIG d   1       3.673  87.300 115.852  0.00  0.00     0.109 C 
ATOM     16  O   LIG d   1       2.260  87.800 113.968  0.00  0.00    -0.276 OA
ATOM     17  H   LIG d   1       3.047  84.966 115.121  0.00  0.00     0.149 HD
ENDBRANCH   6  13
BRANCH   5  18
ATOM     18  N   LIG d   1      -0.384  86.068 114.100  0.00  0.00     0.381 N 
ATOM     19  H   LIG d   1      -0.460  86.625 113.272  0.00  0.00    -0.090 HD
ATOM     20  H   LIG d   1       0.147  86.583 114.780  0.00  0.00    -0.090 HD
ATOM     21  H   LIG d   1      -1.292  85.868 114.458  0.00  0.00    -0.090 HD
ENDBRANCH   5  18
BRANCH   3  22
ATOM     22  C   LIG d   1      -0.538  81.974 111.619  0.00  0.00     0.382 C 
ATOM     23  O   LIG d   1      -0.039  81.180 110.786  0.00  0.00    -0.241 OA
ATOM     24  O   LIG d   1      -1.742  81.868 111.921  0.00  0.00    -0.241 OA
ENDBRANCH   3  22
TORSDOF 7
ENDMDL
MODEL 5
REMARK VINA RESULT:      -5.7      2.954      6.511
REMARK  7 active torsions:
REMARK  status: ('A' for Active; 'I' for Inactive)
REMARK    1  A    between atoms: C_2  and  C_3 
REMARK    2  A    between atoms: C_3  and  O_6 
REMARK    3  A    between atoms: C_3  and  C_4 
REMARK    4  A    between atoms: C_7  and  O_6 
REMARK    5  A    between atoms: C_9  and  C_10 
REMARK    6  A    between atoms: N_15  and  C_14 
REMARK    7  A    between atoms: N_20  and  C_19 
REMARK       I    between atoms: C_22  and  N_20 
ROOT
ATOM      1  C   LIG d   1       2.386  84.729 112.657  0.00  0.00     0.161 C 
ATOM      2  C   LIG d   1       1.325  83.809 112.607  0.00  0.00     0.016 C 
ATOM      3  C   LIG d   1       0.117  83.975 113.321  0.00  0.00     0.038 C 
ATOM      4  C   LIG d   1      -0.175  85.156 114.021  0.00  0.00     0.028 C 
ATOM      5  C   LIG d   1       1.068  85.891 114.512  0.00  0.00    -0.047 C 
ATOM      6  C   LIG d   1       2.042  86.076 113.326  0.00  0.00     0.091 C 
ENDROOT
BRANCH   1   7
ATOM      7  O   LIG d   1       2.907  84.947 111.331  0.00  0.00    -0.368 OA
BRANCH   7   8
ATOM      8  C   LIG d   1       2.093  84.455 110.237  0.00  0.00     0.119 C 
BRANCH   8   9
ATOM      9  C   LIG d   1       3.012  83.643 109.305  0.00  0.00     0.028 C 
ATOM     10  C   LIG d   1       4.479  83.659 109.767  0.00  0.00     0.006 C 
ENDBRANCH   8   9
BRANCH   8  11
ATOM     11  C   LIG d   1       1.559  85.606 109.379  0.00  0.00     0.028 C 
ATOM     12  C   LIG d   1       0.090  85.942 109.680  0.00  0.00     0.006 C 
ENDBRANCH   8  11
ENDBRANCH   7   8
ENDBRANCH   1   7
BRANCH   6  13
ATOM     13  N   LIG d   1       3.321  86.713 113.738  0.00  0.00    -0.311 N 
ATOM     14  C   LIG d   1       3.918  87.676 113.038  0.00  0.00     0.210 C 
ATOM     15  C   LIG d   1       5.239  88.180 113.629  0.00  0.00     0.109 C 
ATOM     16  O   LIG d   1       3.464  88.184 112.002  0.00  0.00    -0.276 OA
ATOM     17  H   LIG d   1       3.743  86.383 114.583  0.00  0.00     0.149 HD
ENDBRANCH   6  13
BRANCH   5  18
ATOM     18  N   LIG d   1       0.625  87.169 115.101  0.00  0.00     0.381 N 
ATOM     19  H   LIG d   1       0.711  87.131 116.097  0.00  0.00    -0.090 HD
ATOM     20  H   LIG d   1      -0.343  87.314 114.874  0.00  0.00    -0.090 HD
ATOM     21  H   LIG d   1       1.174  87.919 114.742  0.00  0.00    -0.090 HD
ENDBRANCH   5  18
BRANCH   3  22
ATOM     22  C   LIG d   1      -0.799  82.936 113.373  0.00  0.00     0.382 C 
ATOM     23  O   LIG d   1      -0.828  82.174 114.370  0.00  0.00    -0.241 OA
ATOM     24  O   LIG d   1      -1.568  82.722 112.416  0.00  0.00    -0.241 OA
ENDBRANCH   3  22
TORSDOF 7
ENDMDL
MODEL 6
REMARK VINA RESULT:      -5.7      3.355      5.593
REMARK  7 active torsions:
REMARK  status: ('A' for Active; 'I' for Inactive)
REMARK    1  A    between atoms: C_2  and  C_3 
REMARK    2  A    between atoms: C_3  and  O_6 
REMARK    3  A    between atoms: C_3  and  C_4 
REMARK    4  A    between atoms: C_7  and  O_6 
REMARK    5  A    between atoms: C_9  and  C_10 
REMARK    6  A    between atoms: N_15  and  C_14 
REMARK    7  A    between atoms: N_20  and  C_19 
REMARK       I    between atoms: C_22  and  N_20 
ROOT
ATOM      1  C   LIG d   1       3.186  85.833 111.761  0.00  0.00     0.161 C 
ATOM      2  C   LIG d   1       3.999  86.964 111.947  0.00  0.00     0.016 C 
ATOM      3  C   LIG d   1       4.585  87.305 113.188  0.00  0.00     0.038 C 
ATOM      4  C   LIG d   1       4.520  86.450 114.299  0.00  0.00     0.028 C 
ATOM      5  C   LIG d   1       3.290  85.549 114.299  0.00  0.00    -0.047 C 
ATOM      6  C   LIG d   1       3.195  84.830 112.934  0.00  0.00     0.091 C 
ENDROOT
BRANCH   1   7
ATOM      7  O   LIG d   1       3.544  85.171 110.532  0.00  0.00    -0.368 OA
BRANCH   7   8
ATOM      8  C   LIG d   1       2.544  85.189 109.484  0.00  0.00     0.119 C 
BRANCH   8   9
ATOM      9  C   LIG d   1       1.404  86.116 109.948  0.00  0.00     0.028 C 
ATOM     10  C   LIG d   1       0.024  85.444 109.848  0.00  0.00     0.006 C 
ENDBRANCH   8   9
BRANCH   8  11
ATOM     11  C   LIG d   1       1.899  83.811 109.305  0.00  0.00     0.028 C 
ATOM     12  C   LIG d   1       2.924  82.666 109.326  0.00  0.00     0.006 C 
ENDBRANCH   8  11
ENDBRANCH   7   8
ENDBRANCH   1   7
BRANCH   6  13
ATOM     13  N   LIG d   1       1.972  83.993 112.818  0.00  0.00    -0.311 N 
ATOM     14  C   LIG d   1       1.952  82.686 113.074  0.00  0.00     0.210 C 
ATOM     15  C   LIG d   1       0.593  82.008 112.873  0.00  0.00     0.109 C 
ATOM     16  O   LIG d   1       2.923  82.029 113.479  0.00  0.00    -0.276 OA
ATOM     17  H   LIG d   1       1.132  84.451 112.525  0.00  0.00     0.149 HD
ENDBRANCH   6  13
BRANCH   5  18
ATOM     18  N   LIG d   1       3.419  84.618 115.435  0.00  0.00     0.381 N 
ATOM     19  H   LIG d   1       4.373  84.333 115.532  0.00  0.00    -0.090 HD
ATOM     20  H   LIG d   1       2.863  83.802 115.251  0.00  0.00    -0.090 HD
ATOM     21  H   LIG d   1       3.110  85.058 116.274  0.00  0.00    -0.090 HD
ENDBRANCH   5  18
BRANCH   3  22
ATOM     22  C   LIG d   1       5.212  88.532 113.337  0.00  0.00     0.382 C 
ATOM     23  O   LIG d   1       6.167  88.655 114.142  0.00  0.00    -0.241 OA
ATOM     24  O   LIG d   1       4.806  89.530 112.711  0.00  0.00    -0.241 OA
ENDBRANCH   3  22
TORSDOF 7
ENDMDL
MODEL 7
REMARK VINA RESULT:      -5.6      2.367      4.246
REMARK  7 active torsions:
REMARK  status: ('A' for Active; 'I' for Inactive)
REMARK    1  A    between atoms: C_2  and  C_3 
REMARK    2  A    between atoms: C_3  and  O_6 
REMARK    3  A    between atoms: C_3  and  C_4 
REMARK    4  A    between atoms: C_7  and  O_6 
REMARK    5  A    between atoms: C_9  and  C_10 
REMARK    6  A    between atoms: N_15  and  C_14 
REMARK    7  A    between atoms: N_20  and  C_19 
REMARK       I    between atoms: C_22  and  N_20 
ROOT
ATOM      1  C   LIG d   1       1.173  82.711 111.950  0.00  0.00     0.161 C 
ATOM      2  C   LIG d   1       2.114  82.200 111.041  0.00  0.00     0.016 C 
ATOM      3  C   LIG d   1       1.945  80.978 110.350  0.00  0.00     0.038 C 
ATOM      4  C   LIG d   1       0.745  80.253 110.409  0.00  0.00     0.028 C 
ATOM      5  C   LIG d   1      -0.032  80.471 111.703  0.00  0.00    -0.047 C 
ATOM      6  C   LIG d   1      -0.191  81.990 111.943  0.00  0.00     0.091 C 
ENDROOT
BRANCH   1   7
ATOM      7  O   LIG d   1       0.994  84.124 111.725  0.00  0.00    -0.368 OA
BRANCH   7   8
ATOM      8  C   LIG d   1       1.638  84.668 110.547  0.00  0.00     0.119 C 
BRANCH   8   9
ATOM      9  C   LIG d   1       2.106  86.095 110.893  0.00  0.00     0.028 C 
ATOM     10  C   LIG d   1       3.511  86.117 111.518  0.00  0.00     0.006 C 
ENDBRANCH   8   9
BRANCH   8  11
ATOM     11  C   LIG d   1       0.642  84.836 109.396  0.00  0.00     0.028 C 
ATOM     12  C   LIG d   1      -0.442  85.885 109.693  0.00  0.00     0.006 C 
ENDBRANCH   8  11
ENDBRANCH   7   8
ENDBRANCH   1   7
BRANCH   6  13
ATOM     13  N   LIG d   1      -0.866  82.293 113.232  0.00  0.00    -0.311 N 
ATOM     14  C   LIG d   1      -2.189  82.277 113.388  0.00  0.00     0.210 C 
ATOM     15  C   LIG d   1      -2.679  82.639 114.793  0.00  0.00     0.109 C 
ATOM     16  O   LIG d   1      -3.002  81.967 112.504  0.00  0.00    -0.276 OA
ATOM     17  H   LIG d   1      -0.281  82.525 114.010  0.00  0.00     0.149 HD
ENDBRANCH   6  13
BRANCH   5  18
ATOM     18  N   LIG d   1      -1.322  79.768 111.573  0.00  0.00     0.381 N 
ATOM     19  H   LIG d   1      -1.414  79.397 110.649  0.00  0.00    -0.090 HD
ATOM     20  H   LIG d   1      -2.067  80.425 111.725  0.00  0.00    -0.090 HD
ATOM     21  H   LIG d   1      -1.378  79.031 112.241  0.00  0.00    -0.090 HD
ENDBRANCH   5  18
BRANCH   3  22
ATOM     22  C   LIG d   1       2.999  80.448 109.621  0.00  0.00     0.382 C 
ATOM     23  O   LIG d   1       3.000  79.232 109.315  0.00  0.00    -0.241 OA
ATOM     24  O   LIG d   1       3.969  81.162 109.305  0.00  0.00    -0.241 OA
ENDBRANCH   3  22
TORSDOF 7
ENDMDL
MODEL 8
REMARK VINA RESULT:      -5.5      8.496     11.818
REMARK  7 active torsions:
REMARK  status: ('A' for Active; 'I' for Inactive)
REMARK    1  A    between atoms: C_2  and  C_3 
REMARK    2  A    between atoms: C_3  and  O_6 
REMARK    3  A    between atoms: C_3  and  C_4 
REMARK    4  A    between atoms: C_7  and  O_6 
REMARK    5  A    between atoms: C_9  and  C_10 
REMARK    6  A    between atoms: N_15  and  C_14 
REMARK    7  A    between atoms: N_20  and  C_19 
REMARK       I    between atoms: C_22  and  N_20 
ROOT
ATOM      1  C   LIG d   1      -7.013  77.202 117.550  0.00  0.00     0.161 C 
ATOM      2  C   LIG d   1      -8.280  77.742 117.827  0.00  0.00     0.016 C 
ATOM      3  C   LIG d   1      -8.544  79.131 117.855  0.00  0.00     0.038 C 
ATOM      4  C   LIG d   1      -7.588  80.076 117.456  0.00  0.00     0.028 C 
ATOM      5  C   LIG d   1      -6.151  79.605 117.656  0.00  0.00    -0.047 C 
ATOM      6  C   LIG d   1      -5.984  78.214 117.004  0.00  0.00     0.091 C 
ENDROOT
BRANCH   1   7
ATOM      7  O   LIG d   1      -7.144  76.085 116.649  0.00  0.00    -0.368 OA
BRANCH   7   8
ATOM      8  C   LIG d   1      -6.731  74.796 117.167  0.00  0.00     0.119 C 
BRANCH   8   9
ATOM      9  C   LIG d   1      -5.863  74.121 116.087  0.00  0.00     0.028 C 
ATOM     10  C   LIG d   1      -5.654  75.019 114.856  0.00  0.00     0.006 C 
ENDBRANCH   8   9
BRANCH   8  11
ATOM     11  C   LIG d   1      -7.930  73.864 117.365  0.00  0.00     0.028 C 
ATOM     12  C   LIG d   1      -7.639  72.419 116.930  0.00  0.00     0.006 C 
ENDBRANCH   8  11
ENDBRANCH   7   8
ENDBRANCH   1   7
BRANCH   6  13
ATOM     13  N   LIG d   1      -4.630  77.643 117.226  0.00  0.00    -0.311 N 
ATOM     14  C   LIG d   1      -3.628  77.773 116.359  0.00  0.00     0.210 C 
ATOM     15  C   LIG d   1      -2.321  77.090 116.774  0.00  0.00     0.109 C 
ATOM     16  O   LIG d   1      -3.688  78.416 115.300  0.00  0.00    -0.276 OA
ATOM     17  H   LIG d   1      -4.484  77.132 118.075  0.00  0.00     0.149 HD
ENDBRANCH   6  13
BRANCH   5  18
ATOM     18  N   LIG d   1      -5.262  80.628 117.073  0.00  0.00     0.381 N 
ATOM     19  H   LIG d   1      -4.419  80.198 116.748  0.00  0.00    -0.090 HD
ATOM     20  H   LIG d   1      -5.022  81.294 117.785  0.00  0.00    -0.090 HD
ATOM     21  H   LIG d   1      -5.721  81.088 116.318  0.00  0.00    -0.090 HD
ENDBRANCH   5  18
BRANCH   3  22
ATOM     22  C   LIG d   1      -9.767  79.588 118.324  0.00  0.00     0.382 C 
ATOM     23  O   LIG d   1     -10.331  79.002 119.278  0.00  0.00    -0.241 OA
ATOM     24  O   LIG d   1     -10.333  80.553 117.775  0.00  0.00    -0.241 OA
ENDBRANCH   3  22
TORSDOF 7
ENDMDL
MODEL 9
REMARK VINA RESULT:      -5.4      2.767      6.216
REMARK  7 active torsions:
REMARK  status: ('A' for Active; 'I' for Inactive)
REMARK    1  A    between atoms: C_2  and  C_3 
REMARK    2  A    between atoms: C_3  and  O_6 
REMARK    3  A    between atoms: C_3  and  C_4 
REMARK    4  A    between atoms: C_7  and  O_6 
REMARK    5  A    between atoms: C_9  and  C_10 
REMARK    6  A    between atoms: N_15  and  C_14 
REMARK    7  A    between atoms: N_20  and  C_19 
REMARK       I    between atoms: C_22  and  N_20 
ROOT
ATOM      1  C   LIG d   1       1.990  82.286 112.899  0.00  0.00     0.161 C 
ATOM      2  C   LIG d   1       0.836  81.618 112.459  0.00  0.00     0.016 C 
ATOM      3  C   LIG d   1      -0.452  82.202 112.465  0.00  0.00     0.038 C 
ATOM      4  C   LIG d   1      -0.649  83.556 112.772  0.00  0.00     0.028 C 
ATOM      5  C   LIG d   1       0.413  84.127 113.706  0.00  0.00    -0.047 C 
ATOM      6  C   LIG d   1       1.811  83.800 113.134  0.00  0.00     0.091 C 
ENDROOT
BRANCH   1   7
ATOM      7  O   LIG d   1       3.074  82.046 111.980  0.00  0.00    -0.368 OA
BRANCH   7   8
ATOM      8  C   LIG d   1       2.718  81.977 110.578  0.00  0.00     0.119 C 
BRANCH   8   9
ATOM      9  C   LIG d   1       3.582  80.877 109.933  0.00  0.00     0.028 C 
ATOM     10  C   LIG d   1       2.735  79.752 109.314  0.00  0.00     0.006 C 
ENDBRANCH   8   9
BRANCH   8  11
ATOM     11  C   LIG d   1       3.092  83.269 109.844  0.00  0.00     0.028 C 
ATOM     12  C   LIG d   1       4.611  83.480 109.746  0.00  0.00     0.006 C 
ENDBRANCH   8  11
ENDBRANCH   7   8
ENDBRANCH   1   7
BRANCH   6  13
ATOM     13  N   LIG d   1       2.909  84.249 114.029  0.00  0.00    -0.311 N 
ATOM     14  C   LIG d   1       3.845  85.123 113.661  0.00  0.00     0.210 C 
ATOM     15  C   LIG d   1       4.896  85.434 114.731  0.00  0.00     0.109 C 
ATOM     16  O   LIG d   1       3.885  85.694 112.561  0.00  0.00    -0.276 OA
ATOM     17  H   LIG d   1       2.934  83.860 114.951  0.00  0.00     0.149 HD
ENDBRANCH   6  13
BRANCH   5  18
ATOM     18  N   LIG d   1       0.164  85.575 113.832  0.00  0.00     0.381 N 
ATOM     19  H   LIG d   1      -0.821  85.750 113.848  0.00  0.00    -0.090 HD
ATOM     20  H   LIG d   1       0.554  86.043 113.033  0.00  0.00    -0.090 HD
ATOM     21  H   LIG d   1       0.584  85.922 114.667  0.00  0.00    -0.090 HD
ENDBRANCH   5  18
BRANCH   3  22
ATOM     22  C   LIG d   1      -1.564  81.418 112.198  0.00  0.00     0.382 C 
ATOM     23  O   LIG d   1      -1.418  80.246 111.776  0.00  0.00    -0.241 OA
ATOM     24  O   LIG d   1      -2.711  81.883 112.332  0.00  0.00    -0.241 OA
ENDBRANCH   3  22
TORSDOF 7
ENDMDL
