MODEL 1
REMARK VINA RESULT:      -6.2      0.000      0.000
REMARK  7 active torsions:
REMARK  status: ('A' for Active; 'I' for Inactive)
REMARK    1  A    between atoms: C_2  and  C_3 
REMARK    2  A    between atoms: C_3  and  O_6 
REMARK    3  A    between atoms: C_3  and  C_4 
REMARK    4  A    between atoms: C_7  and  O_6 
REMARK    5  A    between atoms: C_9  and  C_10 
REMARK    6  A    between atoms: N_15  and  C_14 
REMARK    7  A    between atoms: N_20  and  C_19 
REMARK       I    between atoms: C_22  and  N_20 
ROOT
ATOM      1  C   LIG d   1       1.622  82.899 112.194  0.00  0.00     0.161 C 
ATOM      2  C   LIG d   1       2.669  82.625 111.299  0.00  0.00     0.016 C 
ATOM      3  C   LIG d   1       2.719  81.467 110.489  0.00  0.00     0.038 C 
ATOM      4  C   LIG d   1       1.643  80.572 110.409  0.00  0.00     0.028 C 
ATOM      5  C   LIG d   1       0.785  80.542 111.670  0.00  0.00    -0.047 C 
ATOM      6  C   LIG d   1       0.385  81.989 112.039  0.00  0.00     0.091 C 
ENDROOT
BRANCH   1   7
ATOM      7  O   LIG d   1       1.240  84.285 112.091  0.00  0.00    -0.368 OA
BRANCH   7   8
ATOM      8  C   LIG d   1       1.336  84.876 110.772  0.00  0.00     0.119 C 
BRANCH   8   9
ATOM      9  C   LIG d   1       2.003  86.256 110.931  0.00  0.00     0.028 C 
ATOM     10  C   LIG d   1       3.523  86.153 111.141  0.00  0.00     0.006 C 
ENDBRANCH   8   9
BRANCH   8  11
ATOM     11  C   LIG d   1      -0.050  85.160 110.186  0.00  0.00     0.028 C 
ATOM     12  C   LIG d   1      -0.690  86.434 110.759  0.00  0.00     0.006 C 
ENDBRANCH   8  11
ENDBRANCH   7   8
ENDBRANCH   1   7
BRANCH   6  13
ATOM     13  N   LIG d   1      -0.386  82.058 113.307  0.00  0.00    -0.311 N 
ATOM     14  C   LIG d   1      -1.717  82.059 113.357  0.00  0.00     0.210 C 
ATOM     15  C   LIG d   1      -2.311  82.157 114.766  0.00  0.00     0.109 C 
ATOM     16  O   LIG d   1      -2.462  81.957 112.371  0.00  0.00    -0.276 OA
ATOM     17  H   LIG d   1       0.139  82.112 114.158  0.00  0.00     0.149 HD
ENDBRANCH   6  13
BRANCH   5  18
ATOM     18  N   LIG d   1      -0.376  79.673 111.398  0.00  0.00     0.381 N 
ATOM     19  H   LIG d   1      -0.101  78.713 111.454  0.00  0.00    -0.090 HD
ATOM     20  H   LIG d   1      -0.706  79.853 110.466  0.00  0.00    -0.090 HD
ATOM     21  H   LIG d   1      -1.101  79.857 112.056  0.00  0.00    -0.090 HD
ENDBRANCH   5  18
BRANCH   3  22
ATOM     22  C   LIG d   1       3.874  81.175 109.779  0.00  0.00     0.382 C 
ATOM     23  O   LIG d   1       4.676  82.092 109.482  0.00  0.00    -0.241 OA
ATOM     24  O   LIG d   1       4.100  80.013 109.392  0.00  0.00    -0.241 OA
ENDBRANCH   3  22
TORSDOF 7
ENDMDL
MODEL 2
REMARK VINA RESULT:      -6.0      1.862      4.846
REMARK  7 active torsions:
REMARK  status: ('A' for Active; 'I' for Inactive)
REMARK    1  A    between atoms: C_2  and  C_3 
REMARK    2  A    between atoms: C_3  and  O_6 
REMARK    3  A    between atoms: C_3  and  C_4 
REMARK    4  A    between atoms: C_7  and  O_6 
REMARK    5  A    between atoms: C_9  and  C_10 
REMARK    6  A    between atoms: N_15  and  C_14 
REMARK    7  A    between atoms: N_20  and  C_19 
REMARK       I    between atoms: C_22  and  N_20 
ROOT
ATOM      1  C   LIG d   1       0.368  82.758 112.137  0.00  0.00     0.161 C 
ATOM      2  C   LIG d   1      -0.843  82.578 112.825  0.00  0.00     0.016 C 
ATOM      3  C   LIG d   1      -1.574  81.367 112.810  0.00  0.00     0.038 C 
ATOM      4  C   LIG d   1      -1.062  80.200 112.225  0.00  0.00     0.028 C 
ATOM      5  C   LIG d   1      -0.080  80.471 111.090  0.00  0.00    -0.047 C 
ATOM      6  C   LIG d   1       0.998  81.462 111.585  0.00  0.00     0.091 C 
ENDROOT
BRANCH   1   7
ATOM      7  O   LIG d   1       1.309  83.453 112.979  0.00  0.00    -0.368 OA
BRANCH   7   8
ATOM      8  C   LIG d   1       1.627  84.813 112.593  0.00  0.00     0.119 C 
BRANCH   8   9
ATOM      9  C   LIG d   1       3.133  84.863 112.271  0.00  0.00     0.028 C 
ATOM     10  C   LIG d   1       3.429  85.617 110.963  0.00  0.00     0.006 C 
ENDBRANCH   8   9
BRANCH   8  11
ATOM     11  C   LIG d   1       1.429  85.785 113.760  0.00  0.00     0.028 C 
ATOM     12  C   LIG d   1      -0.042  85.910 114.188  0.00  0.00     0.006 C 
ENDBRANCH   8  11
ENDBRANCH   7   8
ENDBRANCH   1   7
BRANCH   6  13
ATOM     13  N   LIG d   1       1.950  81.847 110.511  0.00  0.00    -0.311 N 
ATOM     14  C   LIG d   1       3.269  81.686 110.609  0.00  0.00     0.210 C 
ATOM     15  C   LIG d   1       4.070  82.168 109.395  0.00  0.00     0.109 C 
ATOM     16  O   LIG d   1       3.848  81.161 111.571  0.00  0.00    -0.276 OA
ATOM     17  H   LIG d   1       1.563  82.251 109.681  0.00  0.00     0.149 HD
ENDBRANCH   6  13
BRANCH   5  18
ATOM     18  N   LIG d   1       0.479  79.174 110.665  0.00  0.00     0.381 N 
ATOM     19  H   LIG d   1       1.374  79.313 110.241  0.00  0.00    -0.090 HD
ATOM     20  H   LIG d   1      -0.133  78.764 109.982  0.00  0.00    -0.090 HD
ATOM     21  H   LIG d   1       0.566  78.566 111.450  0.00  0.00    -0.090 HD
ENDBRANCH   5  18
BRANCH   3  22
ATOM     22  C   LIG d   1      -2.850  81.328 113.351  0.00  0.00     0.382 C 
ATOM     23  O   LIG d   1      -3.035  80.819 114.483  0.00  0.00    -0.241 OA
ATOM     24  O   LIG d   1      -3.824  81.755 112.703  0.00  0.00    -0.241 OA
ENDBRANCH   3  22
TORSDOF 7
ENDMDL
MODEL 3
REMARK VINA RESULT:      -6.0      2.054      4.317
REMARK  7 active torsions:
REMARK  status: ('A' for Active; 'I' for Inactive)
REMARK    1  A    between atoms: C_2  and  C_3 
REMARK    2  A    between atoms: C_3  and  O_6 
REMARK    3  A    between atoms: C_3  and  C_4 
REMARK    4  A    between atoms: C_7  and  O_6 
REMARK    5  A    between atoms: C_9  and  C_10 
REMARK    6  A    between atoms: N_15  and  C_14 
REMARK    7  A    between atoms: N_20  and  C_19 
REMARK       I    between atoms: C_22  and  N_20 
ROOT
ATOM      1  C   LIG d   1       0.420  83.593 110.693  0.00  0.00     0.161 C 
ATOM      2  C   LIG d   1       1.342  84.631 110.475  0.00  0.00     0.016 C 
ATOM      3  C   LIG d   1       1.819  85.476 111.502  0.00  0.00     0.038 C 
ATOM      4  C   LIG d   1       1.520  85.243 112.853  0.00  0.00     0.028 C 
ATOM      5  C   LIG d   1       0.195  84.519 113.064  0.00  0.00    -0.047 C 
ATOM      6  C   LIG d   1       0.168  83.253 112.177  0.00  0.00     0.091 C 
ENDROOT
BRANCH   1   7
ATOM      7  O   LIG d   1       0.830  82.415 109.972  0.00  0.00    -0.368 OA
BRANCH   7   8
ATOM      8  C   LIG d   1       2.048  81.779 110.431  0.00  0.00     0.119 C 
BRANCH   8   9
ATOM      9  C   LIG d   1       3.092  81.909 109.305  0.00  0.00     0.028 C 
ATOM     10  C   LIG d   1       4.434  82.466 109.810  0.00  0.00     0.006 C 
ENDBRANCH   8   9
BRANCH   8  11
ATOM     11  C   LIG d   1       1.851  80.273 110.628  0.00  0.00     0.028 C 
ATOM     12  C   LIG d   1       0.418  79.814 110.315  0.00  0.00     0.006 C 
ENDBRANCH   8  11
ENDBRANCH   7   8
ENDBRANCH   1   7
BRANCH   6  13
ATOM     13  N   LIG d   1      -1.128  82.531 112.259  0.00  0.00    -0.311 N 
ATOM     14  C   LIG d   1      -1.364  81.544 113.122  0.00  0.00     0.210 C 
ATOM     15  C   LIG d   1      -2.760  80.921 113.026  0.00  0.00     0.109 C 
ATOM     16  O   LIG d   1      -0.560  81.146 113.979  0.00  0.00    -0.276 OA
ATOM     17  H   LIG d   1      -1.847  82.810 111.621  0.00  0.00     0.149 HD
ENDBRANCH   6  13
BRANCH   5  18
ATOM     18  N   LIG d   1       0.075  84.219 114.503  0.00  0.00     0.381 N 
ATOM     19  H   LIG d   1       0.509  83.340 114.703  0.00  0.00    -0.090 HD
ATOM     20  H   LIG d   1      -0.899  84.151 114.741  0.00  0.00    -0.090 HD
ATOM     21  H   LIG d   1       0.506  84.940 115.039  0.00  0.00    -0.090 HD
ENDBRANCH   5  18
BRANCH   3  22
ATOM     22  C   LIG d   1       2.574  86.593 111.178  0.00  0.00     0.382 C 
ATOM     23  O   LIG d   1       3.811  86.484 111.001  0.00  0.00    -0.241 OA
ATOM     24  O   LIG d   1       2.040  87.716 111.104  0.00  0.00    -0.241 OA
ENDBRANCH   3  22
TORSDOF 7
ENDMDL
MODEL 4
REMARK VINA RESULT:      -5.9     11.086     14.377
REMARK  7 active torsions:
REMARK  status: ('A' for Active; 'I' for Inactive)
REMARK    1  A    between atoms: C_2  and  C_3 
REMARK    2  A    between atoms: C_3  and  O_6 
REMARK    3  A    between atoms: C_3  and  C_4 
REMARK    4  A    between atoms: C_7  and  O_6 
REMARK    5  A    between atoms: C_9  and  C_10 
REMARK    6  A    between atoms: N_15  and  C_14 
REMARK    7  A    between atoms: N_20  and  C_19 
REMARK       I    between atoms: C_22  and  N_20 
ROOT
ATOM      1  C   LIG d   1      -7.424  74.520 117.693  0.00  0.00     0.161 C 
ATOM      2  C   LIG d   1      -8.594  75.254 117.953  0.00  0.00     0.016 C 
ATOM      3  C   LIG d   1      -8.649  76.667 117.920  0.00  0.00     0.038 C 
ATOM      4  C   LIG d   1      -7.567  77.441 117.475  0.00  0.00     0.028 C 
ATOM      5  C   LIG d   1      -6.214  76.770 117.688  0.00  0.00    -0.047 C 
ATOM      6  C   LIG d   1      -6.263  75.343 117.097  0.00  0.00     0.091 C 
ENDROOT
BRANCH   1   7
ATOM      7  O   LIG d   1      -7.731  73.397 116.843  0.00  0.00    -0.368 OA
BRANCH   7   8
ATOM      8  C   LIG d   1      -7.928  72.127 117.511  0.00  0.00     0.119 C 
BRANCH   8   9
ATOM      9  C   LIG d   1      -6.947  71.117 116.885  0.00  0.00     0.028 C 
ATOM     10  C   LIG d   1      -6.263  71.669 115.622  0.00  0.00     0.006 C 
ENDBRANCH   8   9
BRANCH   8  11
ATOM     11  C   LIG d   1      -9.324  71.562 117.233  0.00  0.00     0.028 C 
ATOM     12  C   LIG d   1      -9.363  70.026 117.270  0.00  0.00     0.006 C 
ENDBRANCH   8  11
ENDBRANCH   7   8
ENDBRANCH   1   7
BRANCH   6  13
ATOM     13  N   LIG d   1      -5.006  74.586 117.338  0.00  0.00    -0.311 N 
ATOM     14  C   LIG d   1      -4.030  74.481 116.438  0.00  0.00     0.210 C 
ATOM     15  C   LIG d   1      -2.830  73.639 116.881  0.00  0.00     0.109 C 
ATOM     16  O   LIG d   1      -4.031  75.032 115.326  0.00  0.00    -0.276 OA
ATOM     17  H   LIG d   1      -4.909  74.134 118.225  0.00  0.00     0.149 HD
ENDBRANCH   6  13
BRANCH   5  18
ATOM     18  N   LIG d   1      -5.189  77.623 117.055  0.00  0.00     0.381 N 
ATOM     19  H   LIG d   1      -4.931  77.240 116.168  0.00  0.00    -0.090 HD
ATOM     20  H   LIG d   1      -4.374  77.640 117.642  0.00  0.00    -0.090 HD
ATOM     21  H   LIG d   1      -5.541  78.547 116.936  0.00  0.00    -0.090 HD
ENDBRANCH   5  18
BRANCH   3  22
ATOM     22  C   LIG d   1      -9.784  77.321 118.375  0.00  0.00     0.382 C 
ATOM     23  O   LIG d   1     -10.888  76.726 118.385  0.00  0.00    -0.241 OA
ATOM     24  O   LIG d   1      -9.725  78.513 118.732  0.00  0.00    -0.241 OA
ENDBRANCH   3  22
TORSDOF 7
ENDMDL
MODEL 5
REMARK VINA RESULT:      -5.7      3.311      5.508
REMARK  7 active torsions:
REMARK  status: ('A' for Active; 'I' for Inactive)
REMARK    1  A    between atoms: C_2  and  C_3 
REMARK    2  A    between atoms: C_3  and  O_6 
REMARK    3  A    between atoms: C_3  and  C_4 
REMARK    4  A    between atoms: C_7  and  O_6 
REMARK    5  A    between atoms: C_9  and  C_10 
REMARK    6  A    between atoms: N_15  and  C_14 
REMARK    7  A    between atoms: N_20  and  C_19 
REMARK       I    between atoms: C_22  and  N_20 
ROOT
ATOM      1  C   LIG d   1       1.642  85.968 112.723  0.00  0.00     0.161 C 
ATOM      2  C   LIG d   1       2.657  86.891 112.417  0.00  0.00     0.016 C 
ATOM      3  C   LIG d   1       3.507  87.463 113.391  0.00  0.00     0.038 C 
ATOM      4  C   LIG d   1       3.500  87.033 114.726  0.00  0.00     0.028 C 
ATOM      5  C   LIG d   1       2.155  86.472 115.175  0.00  0.00    -0.047 C 
ATOM      6  C   LIG d   1       1.692  85.404 114.158  0.00  0.00     0.091 C 
ENDROOT
BRANCH   1   7
ATOM      7  O   LIG d   1       1.653  84.894 111.761  0.00  0.00    -0.368 OA
BRANCH   7   8
ATOM      8  C   LIG d   1       2.155  85.224 110.443  0.00  0.00     0.119 C 
BRANCH   8   9
ATOM      9  C   LIG d   1       1.019  84.959 109.436  0.00  0.00     0.028 C 
ATOM     10  C   LIG d   1      -0.128  85.975 109.563  0.00  0.00     0.006 C 
ENDBRANCH   8   9
BRANCH   8  11
ATOM     11  C   LIG d   1       3.292  84.285 110.028  0.00  0.00     0.028 C 
ATOM     12  C   LIG d   1       3.950  83.581 111.226  0.00  0.00     0.006 C 
ENDBRANCH   8  11
ENDBRANCH   7   8
ENDBRANCH   1   7
BRANCH   6  13
ATOM     13  N   LIG d   1       0.345  84.864 114.476  0.00  0.00    -0.311 N 
ATOM     14  C   LIG d   1       0.147  83.782 115.227  0.00  0.00     0.210 C 
ATOM     15  C   LIG d   1      -1.320  83.384 115.415  0.00  0.00     0.109 C 
ATOM     16  O   LIG d   1       1.046  83.131 115.781  0.00  0.00    -0.276 OA
ATOM     17  H   LIG d   1      -0.443  85.349 114.093  0.00  0.00     0.149 HD
ENDBRANCH   6  13
BRANCH   5  18
ATOM     18  N   LIG d   1       2.327  85.937 116.538  0.00  0.00     0.381 N 
ATOM     19  H   LIG d   1       1.956  85.009 116.587  0.00  0.00    -0.090 HD
ATOM     20  H   LIG d   1       1.817  86.516 117.182  0.00  0.00    -0.090 HD
ATOM     21  H   LIG d   1       3.294  85.929 116.782  0.00  0.00    -0.090 HD
ENDBRANCH   5  18
BRANCH   3  22
ATOM     22  C   LIG d   1       4.351  88.505 113.039  0.00  0.00     0.382 C 
ATOM     23  O   LIG d   1       3.965  89.693 113.162  0.00  0.00    -0.241 OA
ATOM     24  O   LIG d   1       5.476  88.273 112.558  0.00  0.00    -0.241 OA
ENDBRANCH   3  22
TORSDOF 7
ENDMDL
MODEL 6
REMARK VINA RESULT:      -5.6      3.018      4.914
REMARK  7 active torsions:
REMARK  status: ('A' for Active; 'I' for Inactive)
REMARK    1  A    between atoms: C_2  and  C_3 
REMARK    2  A    between atoms: C_3  and  O_6 
REMARK    3  A    between atoms: C_3  and  C_4 
REMARK    4  A    between atoms: C_7  and  O_6 
REMARK    5  A    between atoms: C_9  and  C_10 
REMARK    6  A    between atoms: N_15  and  C_14 
REMARK    7  A    between atoms: N_20  and  C_19 
REMARK       I    between atoms: C_22  and  N_20 
ROOT
ATOM      1  C   LIG d   1       0.576  83.610 112.735  0.00  0.00     0.161 C 
ATOM      2  C   LIG d   1      -0.571  82.865 112.416  0.00  0.00     0.016 C 
ATOM      3  C   LIG d   1      -1.488  82.394 113.384  0.00  0.00     0.038 C 
ATOM      4  C   LIG d   1      -1.398  82.769 114.733  0.00  0.00     0.028 C 
ATOM      5  C   LIG d   1       0.022  83.100 115.177  0.00  0.00    -0.047 C 
ATOM      6  C   LIG d   1       0.631  84.123 114.190  0.00  0.00     0.091 C 
ENDROOT
BRANCH   1   7
ATOM      7  O   LIG d   1       0.718  84.708 111.812  0.00  0.00    -0.368 OA
BRANCH   7   8
ATOM      8  C   LIG d   1       1.233  84.374 110.499  0.00  0.00     0.119 C 
BRANCH   8   9
ATOM      9  C   LIG d   1       2.729  84.741 110.481  0.00  0.00     0.028 C 
ATOM     10  C   LIG d   1       2.999  86.133 111.076  0.00  0.00     0.006 C 
ENDBRANCH   8   9
BRANCH   8  11
ATOM     11  C   LIG d   1       0.590  85.240 109.412  0.00  0.00     0.028 C 
ATOM     12  C   LIG d   1      -0.671  85.971 109.900  0.00  0.00     0.006 C 
ENDBRANCH   8  11
ENDBRANCH   7   8
ENDBRANCH   1   7
BRANCH   6  13
ATOM     13  N   LIG d   1       2.049  84.438 114.503  0.00  0.00    -0.311 N 
ATOM     14  C   LIG d   1       2.493  85.674 114.723  0.00  0.00     0.210 C 
ATOM     15  C   LIG d   1       3.995  85.780 115.009  0.00  0.00     0.109 C 
ATOM     16  O   LIG d   1       1.781  86.689 114.742  0.00  0.00    -0.276 OA
ATOM     17  H   LIG d   1       2.690  83.670 114.539  0.00  0.00     0.149 HD
ENDBRANCH   6  13
BRANCH   5  18
ATOM     18  N   LIG d   1      -0.049  83.606 116.561  0.00  0.00     0.381 N 
ATOM     19  H   LIG d   1      -0.418  82.896 117.162  0.00  0.00    -0.090 HD
ATOM     20  H   LIG d   1      -0.671  84.395 116.587  0.00  0.00    -0.090 HD
ATOM     21  H   LIG d   1       0.857  83.877 116.872  0.00  0.00    -0.090 HD
ENDBRANCH   5  18
BRANCH   3  22
ATOM     22  C   LIG d   1      -2.485  81.507 113.012  0.00  0.00     0.382 C 
ATOM     23  O   LIG d   1      -2.182  80.403 112.498  0.00  0.00    -0.241 OA
ATOM     24  O   LIG d   1      -3.685  81.814 113.142  0.00  0.00    -0.241 OA
ENDBRANCH   3  22
TORSDOF 7
ENDMDL
MODEL 7
REMARK VINA RESULT:      -5.6      3.024      5.272
REMARK  7 active torsions:
REMARK  status: ('A' for Active; 'I' for Inactive)
REMARK    1  A    between atoms: C_2  and  C_3 
REMARK    2  A    between atoms: C_3  and  O_6 
REMARK    3  A    between atoms: C_3  and  C_4 
REMARK    4  A    between atoms: C_7  and  O_6 
REMARK    5  A    between atoms: C_9  and  C_10 
REMARK    6  A    between atoms: N_15  and  C_14 
REMARK    7  A    between atoms: N_20  and  C_19 
REMARK       I    between atoms: C_22  and  N_20 
ROOT
ATOM      1  C   LIG d   1       2.259  85.443 112.259  0.00  0.00     0.161 C 
ATOM      2  C   LIG d   1       2.889  86.693 112.147  0.00  0.00     0.016 C 
ATOM      3  C   LIG d   1       3.711  87.243 113.158  0.00  0.00     0.038 C 
ATOM      4  C   LIG d   1       4.082  86.508 114.294  0.00  0.00     0.028 C 
ATOM      5  C   LIG d   1       3.065  85.441 114.684  0.00  0.00    -0.047 C 
ATOM      6  C   LIG d   1       2.741  84.579 113.443  0.00  0.00     0.091 C 
ENDROOT
BRANCH   1   7
ATOM      7  O   LIG d   1       2.391  84.716 111.022  0.00  0.00    -0.368 OA
BRANCH   7   8
ATOM      8  C   LIG d   1       1.155  84.372 110.348  0.00  0.00     0.119 C 
BRANCH   8   9
ATOM      9  C   LIG d   1       1.483  83.287 109.305  0.00  0.00     0.028 C 
ATOM     10  C   LIG d   1       2.529  82.281 109.813  0.00  0.00     0.006 C 
ENDBRANCH   8   9
BRANCH   8  11
ATOM     11  C   LIG d   1       0.611  85.557 109.544  0.00  0.00     0.028 C 
ATOM     12  C   LIG d   1      -0.757  86.041 110.050  0.00  0.00     0.006 C 
ENDBRANCH   8  11
ENDBRANCH   7   8
ENDBRANCH   1   7
BRANCH   6  13
ATOM     13  N   LIG d   1       1.691  83.563 113.717  0.00  0.00    -0.311 N 
ATOM     14  C   LIG d   1       1.889  82.252 113.593  0.00  0.00     0.210 C 
ATOM     15  C   LIG d   1       0.667  81.382 113.905  0.00  0.00     0.109 C 
ATOM     16  O   LIG d   1       2.969  81.726 113.286  0.00  0.00    -0.276 OA
ATOM     17  H   LIG d   1       0.793  83.902 114.001  0.00  0.00     0.149 HD
ENDBRANCH   6  13
BRANCH   5  18
ATOM     18  N   LIG d   1       3.641  84.662 115.796  0.00  0.00     0.381 N 
ATOM     19  H   LIG d   1       4.416  85.157 116.191  0.00  0.00    -0.090 HD
ATOM     20  H   LIG d   1       3.976  83.785 115.439  0.00  0.00    -0.090 HD
ATOM     21  H   LIG d   1       2.949  84.502 116.495  0.00  0.00    -0.090 HD
ENDBRANCH   5  18
BRANCH   3  22
ATOM     22  C   LIG d   1       4.138  88.558 113.056  0.00  0.00     0.382 C 
ATOM     23  O   LIG d   1       3.310  89.496 113.152  0.00  0.00    -0.241 OA
ATOM     24  O   LIG d   1       5.334  88.818 112.825  0.00  0.00    -0.241 OA
ENDBRANCH   3  22
TORSDOF 7
ENDMDL
MODEL 8
REMARK VINA RESULT:      -5.5      1.327      1.931
REMARK  7 active torsions:
REMARK  status: ('A' for Active; 'I' for Inactive)
REMARK    1  A    between atoms: C_2  and  C_3 
REMARK    2  A    between atoms: C_3  and  O_6 
REMARK    3  A    between atoms: C_3  and  C_4 
REMARK    4  A    between atoms: C_7  and  O_6 
REMARK    5  A    between atoms: C_9  and  C_10 
REMARK    6  A    between atoms: N_15  and  C_14 
REMARK    7  A    between atoms: N_20  and  C_19 
REMARK       I    between atoms: C_22  and  N_20 
ROOT
ATOM      1  C   LIG d   1       1.700  82.796 112.275  0.00  0.00     0.161 C 
ATOM      2  C   LIG d   1       2.741  82.530 111.370  0.00  0.00     0.016 C 
ATOM      3  C   LIG d   1       2.748  81.417 110.498  0.00  0.00     0.038 C 
ATOM      4  C   LIG d   1       1.636  80.573 110.363  0.00  0.00     0.028 C 
ATOM      5  C   LIG d   1       0.770  80.509 111.617  0.00  0.00    -0.047 C 
ATOM      6  C   LIG d   1       0.428  81.948 112.065  0.00  0.00     0.091 C 
ENDROOT
BRANCH   1   7
ATOM      7  O   LIG d   1       1.377  84.200 112.249  0.00  0.00    -0.368 OA
BRANCH   7   8
ATOM      8  C   LIG d   1       2.037  85.025 113.241  0.00  0.00     0.119 C 
BRANCH   8   9
ATOM      9  C   LIG d   1       0.961  85.504 114.234  0.00  0.00     0.028 C 
ATOM     10  C   LIG d   1       0.888  84.621 115.492  0.00  0.00     0.006 C 
ENDBRANCH   8   9
BRANCH   8  11
ATOM     11  C   LIG d   1       2.608  86.300 112.615  0.00  0.00     0.028 C 
ATOM     12  C   LIG d   1       2.852  86.164 111.103  0.00  0.00     0.006 C 
ENDBRANCH   8  11
ENDBRANCH   7   8
ENDBRANCH   1   7
BRANCH   6  13
ATOM     13  N   LIG d   1      -0.347  81.978 113.333  0.00  0.00    -0.311 N 
ATOM     14  C   LIG d   1      -1.678  82.023 113.377  0.00  0.00     0.210 C 
ATOM     15  C   LIG d   1      -2.276  82.068 114.787  0.00  0.00     0.109 C 
ATOM     16  O   LIG d   1      -2.420  81.996 112.384  0.00  0.00    -0.276 OA
ATOM     17  H   LIG d   1       0.175  81.971 114.187  0.00  0.00     0.149 HD
ENDBRANCH   6  13
BRANCH   5  18
ATOM     18  N   LIG d   1      -0.424  79.706 111.292  0.00  0.00     0.381 N 
ATOM     19  H   LIG d   1      -0.225  79.098 110.523  0.00  0.00    -0.090 HD
ATOM     20  H   LIG d   1      -1.169  80.324 111.021  0.00  0.00    -0.090 HD
ATOM     21  H   LIG d   1      -0.700  79.170 112.085  0.00  0.00    -0.090 HD
ENDBRANCH   5  18
BRANCH   3  22
ATOM     22  C   LIG d   1       3.894  81.118 109.776  0.00  0.00     0.382 C 
ATOM     23  O   LIG d   1       4.680  82.035 109.438  0.00  0.00    -0.241 OA
ATOM     24  O   LIG d   1       4.128  79.947 109.420  0.00  0.00    -0.241 OA
ENDBRANCH   3  22
TORSDOF 7
ENDMDL
MODEL 9
REMARK VINA RESULT:      -5.4      3.172      5.303
REMARK  7 active torsions:
REMARK  status: ('A' for Active; 'I' for Inactive)
REMARK    1  A    between atoms: C_2  and  C_3 
REMARK    2  A    between atoms: C_3  and  O_6 
REMARK    3  A    between atoms: C_3  and  C_4 
REMARK    4  A    between atoms: C_7  and  O_6 
REMARK    5  A    between atoms: C_9  and  C_10 
REMARK    6  A    between atoms: N_15  and  C_14 
REMARK    7  A    between atoms: N_20  and  C_19 
REMARK       I    between atoms: C_22  and  N_20 
ROOT
ATOM      1  C   LIG d   1       2.909  84.475 112.793  0.00  0.00     0.161 C 
ATOM      2  C   LIG d   1       3.413  85.740 113.138  0.00  0.00     0.016 C 
ATOM      3  C   LIG d   1       3.205  86.900 112.357  0.00  0.00     0.038 C 
ATOM      4  C   LIG d   1       2.346  86.903 111.248  0.00  0.00     0.028 C 
ATOM      5  C   LIG d   1       2.222  85.540 110.574  0.00  0.00    -0.047 C 
ATOM      6  C   LIG d   1       1.877  84.480 111.645  0.00  0.00     0.091 C 
ENDROOT
BRANCH   1   7
ATOM      7  O   LIG d   1       2.358  83.833 113.959  0.00  0.00    -0.368 OA
BRANCH   7   8
ATOM      8  C   LIG d   1       1.715  84.704 114.922  0.00  0.00     0.119 C 
BRANCH   8   9
ATOM      9  C   LIG d   1       2.079  84.190 116.328  0.00  0.00     0.028 C 
ATOM     10  C   LIG d   1       1.247  82.964 116.739  0.00  0.00     0.006 C 
ENDBRANCH   8   9
BRANCH   8  11
ATOM     11  C   LIG d   1       0.189  84.600 114.835  0.00  0.00     0.028 C 
ATOM     12  C   LIG d   1      -0.445  85.769 114.065  0.00  0.00     0.006 C 
ENDBRANCH   8  11
ENDBRANCH   7   8
ENDBRANCH   1   7
BRANCH   6  13
ATOM     13  N   LIG d   1       1.821  83.105 111.085  0.00  0.00    -0.311 N 
ATOM     14  C   LIG d   1       0.691  82.412 110.956  0.00  0.00     0.210 C 
ATOM     15  C   LIG d   1       0.858  81.005 110.373  0.00  0.00     0.109 C 
ATOM     16  O   LIG d   1      -0.438  82.840 111.239  0.00  0.00    -0.276 OA
ATOM     17  H   LIG d   1       2.687  82.693 110.800  0.00  0.00     0.149 HD
ENDBRANCH   6  13
BRANCH   5  18
ATOM     18  N   LIG d   1       1.194  85.655 109.523  0.00  0.00     0.381 N 
ATOM     19  H   LIG d   1       1.470  85.126 108.720  0.00  0.00    -0.090 HD
ATOM     20  H   LIG d   1       1.112  86.619 109.252  0.00  0.00    -0.090 HD
ATOM     21  H   LIG d   1       0.319  85.323 109.864  0.00  0.00    -0.090 HD
ENDBRANCH   5  18
BRANCH   3  22
ATOM     22  C   LIG d   1       3.892  88.065 112.661  0.00  0.00     0.382 C 
ATOM     23  O   LIG d   1       3.260  89.106 112.960  0.00  0.00    -0.241 OA
ATOM     24  O   LIG d   1       5.136  88.100 112.595  0.00  0.00    -0.241 OA
ENDBRANCH   3  22
TORSDOF 7
ENDMDL
