MODEL 1
REMARK VINA RESULT:      -6.2      0.000      0.000
REMARK  7 active torsions:
REMARK  status: ('A' for Active; 'I' for Inactive)
REMARK    1  A    between atoms: C_2  and  C_3 
REMARK    2  A    between atoms: C_3  and  O_6 
REMARK    3  A    between atoms: C_3  and  C_4 
REMARK    4  A    between atoms: C_7  and  O_6 
REMARK    5  A    between atoms: C_9  and  C_10 
REMARK    6  A    between atoms: N_15  and  C_14 
REMARK    7  A    between atoms: N_20  and  C_19 
REMARK       I    between atoms: C_22  and  N_20 
ROOT
ATOM      1  C   LIG d   1       1.774  82.971 111.774  0.00  0.00     0.161 C 
ATOM      2  C   LIG d   1       2.686  83.029 110.707  0.00  0.00     0.016 C 
ATOM      3  C   LIG d   1       2.636  82.159 109.593  0.00  0.00     0.038 C 
ATOM      4  C   LIG d   1       1.573  81.265 109.397  0.00  0.00     0.028 C 
ATOM      5  C   LIG d   1       0.906  80.823 110.695  0.00  0.00    -0.047 C 
ATOM      6  C   LIG d   1       0.542  82.076 111.524  0.00  0.00     0.091 C 
ENDROOT
BRANCH   1   7
ATOM      7  O   LIG d   1       1.360  84.304 112.136  0.00  0.00    -0.368 OA
BRANCH   7   8
ATOM      8  C   LIG d   1       0.261  84.859 111.372  0.00  0.00     0.119 C 
BRANCH   8   9
ATOM      9  C   LIG d   1       0.849  85.918 110.418  0.00  0.00     0.028 C 
ATOM     10  C   LIG d   1       0.596  85.580 108.939  0.00  0.00     0.006 C 
ENDBRANCH   8   9
BRANCH   8  11
ATOM     11  C   LIG d   1      -0.714  85.622 112.273  0.00  0.00     0.028 C 
ATOM     12  C   LIG d   1      -0.368  85.499 113.765  0.00  0.00     0.006 C 
ENDBRANCH   8  11
ENDBRANCH   7   8
ENDBRANCH   1   7
BRANCH   6  13
ATOM     13  N   LIG d   1      -0.040  81.731 112.848  0.00  0.00    -0.311 N 
ATOM     14  C   LIG d   1      -1.321  81.921 113.158  0.00  0.00     0.210 C 
ATOM     15  C   LIG d   1      -1.708  81.515 114.583  0.00  0.00     0.109 C 
ATOM     16  O   LIG d   1      -2.180  82.358 112.378  0.00  0.00    -0.276 OA
ATOM     17  H   LIG d   1       0.581  81.342 113.531  0.00  0.00     0.149 HD
ENDBRANCH   6  13
BRANCH   5  18
ATOM     18  N   LIG d   1      -0.268  80.005 110.337  0.00  0.00     0.381 N 
ATOM     19  H   LIG d   1      -0.064  79.037 110.484  0.00  0.00    -0.090 HD
ATOM     20  H   LIG d   1      -0.473  80.140 109.362  0.00  0.00    -0.090 HD
ATOM     21  H   LIG d   1      -1.052  80.275 110.889  0.00  0.00    -0.090 HD
ENDBRANCH   5  18
BRANCH   3  22
ATOM     22  C   LIG d   1       3.680  82.151 108.681  0.00  0.00     0.382 C 
ATOM     23  O   LIG d   1       3.793  81.205 107.865  0.00  0.00    -0.241 OA
ATOM     24  O   LIG d   1       4.536  83.056 108.692  0.00  0.00    -0.241 OA
ENDBRANCH   3  22
TORSDOF 7
ENDMDL
MODEL 2
REMARK VINA RESULT:      -6.1      2.965      5.902
REMARK  7 active torsions:
REMARK  status: ('A' for Active; 'I' for Inactive)
REMARK    1  A    between atoms: C_2  and  C_3 
REMARK    2  A    between atoms: C_3  and  O_6 
REMARK    3  A    between atoms: C_3  and  C_4 
REMARK    4  A    between atoms: C_7  and  O_6 
REMARK    5  A    between atoms: C_9  and  C_10 
REMARK    6  A    between atoms: N_15  and  C_14 
REMARK    7  A    between atoms: N_20  and  C_19 
REMARK       I    between atoms: C_22  and  N_20 
ROOT
ATOM      1  C   LIG d   1       2.051  84.615 112.229  0.00  0.00     0.161 C 
ATOM      2  C   LIG d   1       0.984  83.706 112.324  0.00  0.00     0.016 C 
ATOM      3  C   LIG d   1      -0.080  83.848 113.243  0.00  0.00     0.038 C 
ATOM      4  C   LIG d   1      -0.230  84.998 114.032  0.00  0.00     0.028 C 
ATOM      5  C   LIG d   1       1.089  85.703 114.332  0.00  0.00    -0.047 C 
ATOM      6  C   LIG d   1       1.847  85.934 113.005  0.00  0.00     0.091 C 
ENDROOT
BRANCH   1   7
ATOM      7  O   LIG d   1       2.338  84.888 110.844  0.00  0.00    -0.368 OA
BRANCH   7   8
ATOM      8  C   LIG d   1       2.154  83.784 109.925  0.00  0.00     0.119 C 
BRANCH   8   9
ATOM      9  C   LIG d   1       3.549  83.358 109.426  0.00  0.00     0.028 C 
ATOM     10  C   LIG d   1       3.478  82.277 108.335  0.00  0.00     0.006 C 
ENDBRANCH   8   9
BRANCH   8  11
ATOM     11  C   LIG d   1       1.392  84.223 108.671  0.00  0.00     0.028 C 
ATOM     12  C   LIG d   1       0.593  85.518 108.883  0.00  0.00     0.006 C 
ENDBRANCH   8  11
ENDBRANCH   7   8
ENDBRANCH   1   7
BRANCH   6  13
ATOM     13  N   LIG d   1       3.186  86.543 113.216  0.00  0.00    -0.311 N 
ATOM     14  C   LIG d   1       3.432  87.843 113.064  0.00  0.00     0.210 C 
ATOM     15  C   LIG d   1       4.886  88.259 113.311  0.00  0.00     0.109 C 
ATOM     16  O   LIG d   1       2.578  88.696 112.779  0.00  0.00    -0.276 OA
ATOM     17  H   LIG d   1       3.931  85.928 113.479  0.00  0.00     0.149 HD
ENDBRANCH   6  13
BRANCH   5  18
ATOM     18  N   LIG d   1       0.773  86.956 115.043  0.00  0.00     0.381 N 
ATOM     19  H   LIG d   1       1.479  87.640 114.855  0.00  0.00    -0.090 HD
ATOM     20  H   LIG d   1       0.764  86.776 116.031  0.00  0.00    -0.090 HD
ATOM     21  H   LIG d   1      -0.116  87.299 114.752  0.00  0.00    -0.090 HD
ENDBRANCH   5  18
BRANCH   3  22
ATOM     22  C   LIG d   1      -0.989  82.814 113.408  0.00  0.00     0.382 C 
ATOM     23  O   LIG d   1      -1.900  82.639 112.564  0.00  0.00    -0.241 OA
ATOM     24  O   LIG d   1      -0.935  82.080 114.414  0.00  0.00    -0.241 OA
ENDBRANCH   3  22
TORSDOF 7
ENDMDL
MODEL 3
REMARK VINA RESULT:      -5.9      2.386      4.524
REMARK  7 active torsions:
REMARK  status: ('A' for Active; 'I' for Inactive)
REMARK    1  A    between atoms: C_2  and  C_3 
REMARK    2  A    between atoms: C_3  and  O_6 
REMARK    3  A    between atoms: C_3  and  C_4 
REMARK    4  A    between atoms: C_7  and  O_6 
REMARK    5  A    between atoms: C_9  and  C_10 
REMARK    6  A    between atoms: N_15  and  C_14 
REMARK    7  A    between atoms: N_20  and  C_19 
REMARK       I    between atoms: C_22  and  N_20 
ROOT
ATOM      1  C   LIG d   1       2.268  82.914 111.541  0.00  0.00     0.161 C 
ATOM      2  C   LIG d   1       2.271  84.265 111.927  0.00  0.00     0.016 C 
ATOM      3  C   LIG d   1       1.946  85.325 111.050  0.00  0.00     0.038 C 
ATOM      4  C   LIG d   1       1.447  85.094 109.760  0.00  0.00     0.028 C 
ATOM      5  C   LIG d   1       1.908  83.770 109.161  0.00  0.00    -0.047 C 
ATOM      6  C   LIG d   1       1.619  82.635 110.169  0.00  0.00     0.091 C 
ENDROOT
BRANCH   1   7
ATOM      7  O   LIG d   1       1.641  82.115 112.564  0.00  0.00    -0.368 OA
BRANCH   7   8
ATOM      8  C   LIG d   1       0.201  82.233 112.672  0.00  0.00     0.119 C 
BRANCH   8   9
ATOM      9  C   LIG d   1      -0.111  82.841 114.053  0.00  0.00     0.028 C 
ATOM     10  C   LIG d   1      -0.751  84.235 113.948  0.00  0.00     0.006 C 
ENDBRANCH   8   9
BRANCH   8  11
ATOM     11  C   LIG d   1      -0.472  80.857 112.674  0.00  0.00     0.028 C 
ATOM     12  C   LIG d   1      -0.750  80.331 114.091  0.00  0.00     0.006 C 
ENDBRANCH   8  11
ENDBRANCH   7   8
ENDBRANCH   1   7
BRANCH   6  13
ATOM     13  N   LIG d   1       2.116  81.316 109.697  0.00  0.00    -0.311 N 
ATOM     14  C   LIG d   1       1.313  80.325 109.313  0.00  0.00     0.210 C 
ATOM     15  C   LIG d   1       2.030  79.043 108.880  0.00  0.00     0.109 C 
ATOM     16  O   LIG d   1       0.076  80.398 109.258  0.00  0.00    -0.276 OA
ATOM     17  H   LIG d   1       3.108  81.182 109.680  0.00  0.00     0.149 HD
ENDBRANCH   6  13
BRANCH   5  18
ATOM     18  N   LIG d   1       1.205  83.594 107.875  0.00  0.00     0.381 N 
ATOM     19  H   LIG d   1       1.871  83.464 107.140  0.00  0.00    -0.090 HD
ATOM     20  H   LIG d   1       0.675  84.424 107.678  0.00  0.00    -0.090 HD
ATOM     21  H   LIG d   1       0.597  82.806 107.925  0.00  0.00    -0.090 HD
ENDBRANCH   5  18
BRANCH   3  22
ATOM     22  C   LIG d   1       2.159  86.636 111.449  0.00  0.00     0.382 C 
ATOM     23  O   LIG d   1       1.216  87.303 111.940  0.00  0.00    -0.241 OA
ATOM     24  O   LIG d   1       3.270  87.175 111.284  0.00  0.00    -0.241 OA
ENDBRANCH   3  22
TORSDOF 7
ENDMDL
MODEL 4
REMARK VINA RESULT:      -5.9      2.412      5.757
REMARK  7 active torsions:
REMARK  status: ('A' for Active; 'I' for Inactive)
REMARK    1  A    between atoms: C_2  and  C_3 
REMARK    2  A    between atoms: C_3  and  O_6 
REMARK    3  A    between atoms: C_3  and  C_4 
REMARK    4  A    between atoms: C_7  and  O_6 
REMARK    5  A    between atoms: C_9  and  C_10 
REMARK    6  A    between atoms: N_15  and  C_14 
REMARK    7  A    between atoms: N_20  and  C_19 
REMARK       I    between atoms: C_22  and  N_20 
ROOT
ATOM      1  C   LIG d   1       1.382  82.681 111.847  0.00  0.00     0.161 C 
ATOM      2  C   LIG d   1       0.274  81.892 112.196  0.00  0.00     0.016 C 
ATOM      3  C   LIG d   1      -0.928  82.424 112.717  0.00  0.00     0.038 C 
ATOM      4  C   LIG d   1      -1.158  83.806 112.785  0.00  0.00     0.028 C 
ATOM      5  C   LIG d   1       0.120  84.628 112.917  0.00  0.00    -0.047 C 
ATOM      6  C   LIG d   1       1.109  84.199 111.809  0.00  0.00     0.091 C 
ENDROOT
BRANCH   1   7
ATOM      7  O   LIG d   1       1.920  82.237 110.586  0.00  0.00    -0.368 OA
BRANCH   7   8
ATOM      8  C   LIG d   1       2.964  81.234 110.656  0.00  0.00     0.119 C 
BRANCH   8   9
ATOM      9  C   LIG d   1       4.303  81.939 110.364  0.00  0.00     0.028 C 
ATOM     10  C   LIG d   1       4.178  83.004 109.262  0.00  0.00     0.006 C 
ENDBRANCH   8   9
BRANCH   8  11
ATOM     11  C   LIG d   1       2.807  80.188 109.548  0.00  0.00     0.028 C 
ATOM     12  C   LIG d   1       1.337  79.909 109.196  0.00  0.00     0.006 C 
ENDBRANCH   8  11
ENDBRANCH   7   8
ENDBRANCH   1   7
BRANCH   6  13
ATOM     13  N   LIG d   1       2.418  84.895 111.917  0.00  0.00    -0.311 N 
ATOM     14  C   LIG d   1       2.712  86.010 111.251  0.00  0.00     0.210 C 
ATOM     15  C   LIG d   1       4.125  86.552 111.491  0.00  0.00     0.109 C 
ATOM     16  O   LIG d   1       1.927  86.619 110.510  0.00  0.00    -0.276 OA
ATOM     17  H   LIG d   1       3.103  84.485 112.521  0.00  0.00     0.149 HD
ENDBRANCH   6  13
BRANCH   5  18
ATOM     18  N   LIG d   1      -0.256  86.052 112.837  0.00  0.00     0.381 N 
ATOM     19  H   LIG d   1       0.259  86.577 113.515  0.00  0.00    -0.090 HD
ATOM     20  H   LIG d   1      -1.235  86.143 113.045  0.00  0.00    -0.090 HD
ATOM     21  H   LIG d   1      -0.069  86.403 111.923  0.00  0.00    -0.090 HD
ENDBRANCH   5  18
BRANCH   3  22
ATOM     22  C   LIG d   1      -1.899  81.570 113.216  0.00  0.00     0.382 C 
ATOM     23  O   LIG d   1      -3.107  81.761 112.935  0.00  0.00    -0.241 OA
ATOM     24  O   LIG d   1      -1.587  80.636 113.980  0.00  0.00    -0.241 OA
ENDBRANCH   3  22
TORSDOF 7
ENDMDL
MODEL 5
REMARK VINA RESULT:      -5.7      1.712      2.160
REMARK  7 active torsions:
REMARK  status: ('A' for Active; 'I' for Inactive)
REMARK    1  A    between atoms: C_2  and  C_3 
REMARK    2  A    between atoms: C_3  and  O_6 
REMARK    3  A    between atoms: C_3  and  C_4 
REMARK    4  A    between atoms: C_7  and  O_6 
REMARK    5  A    between atoms: C_9  and  C_10 
REMARK    6  A    between atoms: N_15  and  C_14 
REMARK    7  A    between atoms: N_20  and  C_19 
REMARK       I    between atoms: C_22  and  N_20 
ROOT
ATOM      1  C   LIG d   1       2.393  83.316 111.011  0.00  0.00     0.161 C 
ATOM      2  C   LIG d   1       3.228  82.656 110.095  0.00  0.00     0.016 C 
ATOM      3  C   LIG d   1       2.963  81.361 109.593  0.00  0.00     0.038 C 
ATOM      4  C   LIG d   1       1.757  80.696 109.859  0.00  0.00     0.028 C 
ATOM      5  C   LIG d   1       1.115  81.110 111.179  0.00  0.00    -0.047 C 
ATOM      6  C   LIG d   1       1.017  82.652 111.227  0.00  0.00     0.091 C 
ENDROOT
BRANCH   1   7
ATOM      7  O   LIG d   1       2.228  84.693 110.618  0.00  0.00    -0.368 OA
BRANCH   7   8
ATOM      8  C   LIG d   1       2.482  85.683 111.644  0.00  0.00     0.119 C 
BRANCH   8   9
ATOM      9  C   LIG d   1       1.352  86.729 111.568  0.00  0.00     0.028 C 
ATOM     10  C   LIG d   1       0.163  86.247 110.719  0.00  0.00     0.006 C 
ENDBRANCH   8   9
BRANCH   8  11
ATOM     11  C   LIG d   1       3.772  86.459 111.363  0.00  0.00     0.028 C 
ATOM     12  C   LIG d   1       4.221  87.320 112.555  0.00  0.00     0.006 C 
ENDBRANCH   8  11
ENDBRANCH   7   8
ENDBRANCH   1   7
BRANCH   6  13
ATOM     13  N   LIG d   1       0.478  83.145 112.521  0.00  0.00    -0.311 N 
ATOM     14  C   LIG d   1      -0.824  83.280 112.769  0.00  0.00     0.210 C 
ATOM     15  C   LIG d   1      -1.165  83.824 114.160  0.00  0.00     0.109 C 
ATOM     16  O   LIG d   1      -1.730  82.970 111.980  0.00  0.00    -0.276 OA
ATOM     17  H   LIG d   1       1.142  83.390 113.229  0.00  0.00     0.149 HD
ENDBRANCH   6  13
BRANCH   5  18
ATOM     18  N   LIG d   1      -0.199  80.444 111.264  0.00  0.00     0.381 N 
ATOM     19  H   LIG d   1      -0.879  80.972 110.755  0.00  0.00    -0.090 HD
ATOM     20  H   LIG d   1      -0.483  80.408 112.227  0.00  0.00    -0.090 HD
ATOM     21  H   LIG d   1      -0.138  79.521 110.893  0.00  0.00    -0.090 HD
ENDBRANCH   5  18
BRANCH   3  22
ATOM     22  C   LIG d   1       3.928  80.702 108.846  0.00  0.00     0.382 C 
ATOM     23  O   LIG d   1       4.275  81.157 107.730  0.00  0.00    -0.241 OA
ATOM     24  O   LIG d   1       4.423  79.635 109.255  0.00  0.00    -0.241 OA
ENDBRANCH   3  22
TORSDOF 7
ENDMDL
MODEL 6
REMARK VINA RESULT:      -5.7      1.154      1.858
REMARK  7 active torsions:
REMARK  status: ('A' for Active; 'I' for Inactive)
REMARK    1  A    between atoms: C_2  and  C_3 
REMARK    2  A    between atoms: C_3  and  O_6 
REMARK    3  A    between atoms: C_3  and  C_4 
REMARK    4  A    between atoms: C_7  and  O_6 
REMARK    5  A    between atoms: C_9  and  C_10 
REMARK    6  A    between atoms: N_15  and  C_14 
REMARK    7  A    between atoms: N_20  and  C_19 
REMARK       I    between atoms: C_22  and  N_20 
ROOT
ATOM      1  C   LIG d   1       1.788  82.942 111.685  0.00  0.00     0.161 C 
ATOM      2  C   LIG d   1       2.697  82.990 110.615  0.00  0.00     0.016 C 
ATOM      3  C   LIG d   1       2.652  82.104 109.514  0.00  0.00     0.038 C 
ATOM      4  C   LIG d   1       1.595  81.199 109.335  0.00  0.00     0.028 C 
ATOM      5  C   LIG d   1       0.934  80.772 110.641  0.00  0.00    -0.047 C 
ATOM      6  C   LIG d   1       0.563  82.034 111.452  0.00  0.00     0.091 C 
ENDROOT
BRANCH   1   7
ATOM      7  O   LIG d   1       1.366  84.277 112.027  0.00  0.00    -0.368 OA
BRANCH   7   8
ATOM      8  C   LIG d   1       1.874  84.806 113.276  0.00  0.00     0.119 C 
BRANCH   8   9
ATOM      9  C   LIG d   1       0.809  85.765 113.841  0.00  0.00     0.028 C 
ATOM     10  C   LIG d   1      -0.558  85.593 113.156  0.00  0.00     0.006 C 
ENDBRANCH   8   9
BRANCH   8  11
ATOM     11  C   LIG d   1       3.118  85.670 113.050  0.00  0.00     0.028 C 
ATOM     12  C   LIG d   1       3.023  86.531 111.781  0.00  0.00     0.006 C 
ENDBRANCH   8  11
ENDBRANCH   7   8
ENDBRANCH   1   7
BRANCH   6  13
ATOM     13  N   LIG d   1      -0.012  81.705 112.782  0.00  0.00    -0.311 N 
ATOM     14  C   LIG d   1      -1.278  81.953 113.116  0.00  0.00     0.210 C 
ATOM     15  C   LIG d   1      -1.660  81.553 114.544  0.00  0.00     0.109 C 
ATOM     16  O   LIG d   1      -2.128  82.437 112.354  0.00  0.00    -0.276 OA
ATOM     17  H   LIG d   1       0.600  81.281 113.452  0.00  0.00     0.149 HD
ENDBRANCH   6  13
BRANCH   5  18
ATOM     18  N   LIG d   1      -0.234  79.939 110.299  0.00  0.00     0.381 N 
ATOM     19  H   LIG d   1      -0.170  79.641 109.346  0.00  0.00    -0.090 HD
ATOM     20  H   LIG d   1      -1.068  80.492 110.401  0.00  0.00    -0.090 HD
ATOM     21  H   LIG d   1      -0.277  79.147 110.901  0.00  0.00    -0.090 HD
ENDBRANCH   5  18
BRANCH   3  22
ATOM     22  C   LIG d   1       3.693  82.090 108.599  0.00  0.00     0.382 C 
ATOM     23  O   LIG d   1       3.807  81.134 107.794  0.00  0.00    -0.241 OA
ATOM     24  O   LIG d   1       4.545  82.998 108.598  0.00  0.00    -0.241 OA
ENDBRANCH   3  22
TORSDOF 7
ENDMDL
MODEL 7
REMARK VINA RESULT:      -5.7      2.818      4.716
REMARK  7 active torsions:
REMARK  status: ('A' for Active; 'I' for Inactive)
REMARK    1  A    between atoms: C_2  and  C_3 
REMARK    2  A    between atoms: C_3  and  O_6 
REMARK    3  A    between atoms: C_3  and  C_4 
REMARK    4  A    between atoms: C_7  and  O_6 
REMARK    5  A    between atoms: C_9  and  C_10 
REMARK    6  A    between atoms: N_15  and  C_14 
REMARK    7  A    between atoms: N_20  and  C_19 
REMARK       I    between atoms: C_22  and  N_20 
ROOT
ATOM      1  C   LIG d   1       2.734  83.752 111.811  0.00  0.00     0.161 C 
ATOM      2  C   LIG d   1       3.088  85.026 112.286  0.00  0.00     0.016 C 
ATOM      3  C   LIG d   1       2.683  86.229 111.663  0.00  0.00     0.038 C 
ATOM      4  C   LIG d   1       1.765  86.243 110.603  0.00  0.00     0.028 C 
ATOM      5  C   LIG d   1       1.779  84.963 109.773  0.00  0.00    -0.047 C 
ATOM      6  C   LIG d   1       1.642  83.749 110.721  0.00  0.00     0.091 C 
ENDROOT
BRANCH   1   7
ATOM      7  O   LIG d   1       2.343  82.911 112.914  0.00  0.00    -0.368 OA
BRANCH   7   8
ATOM      8  C   LIG d   1       1.677  83.574 114.017  0.00  0.00     0.119 C 
BRANCH   8   9
ATOM      9  C   LIG d   1       2.196  82.937 115.321  0.00  0.00     0.028 C 
ATOM     10  C   LIG d   1       2.458  83.980 116.420  0.00  0.00     0.006 C 
ENDBRANCH   8   9
BRANCH   8  11
ATOM     11  C   LIG d   1       0.170  83.300 114.004  0.00  0.00     0.028 C 
ATOM     12  C   LIG d   1      -0.655  84.531 113.594  0.00  0.00     0.006 C 
ENDBRANCH   8  11
ENDBRANCH   7   8
ENDBRANCH   1   7
BRANCH   6  13
ATOM     13  N   LIG d   1       1.731  82.453 109.998  0.00  0.00    -0.311 N 
ATOM     14  C   LIG d   1       0.826  81.484 110.118  0.00  0.00     0.210 C 
ATOM     15  C   LIG d   1       1.119  80.221 109.301  0.00  0.00     0.109 C 
ATOM     16  O   LIG d   1      -0.209  81.562 110.797  0.00  0.00    -0.276 OA
ATOM     17  H   LIG d   1       2.523  82.318 109.401  0.00  0.00     0.149 HD
ENDBRANCH   6  13
BRANCH   5  18
ATOM     18  N   LIG d   1       0.683  85.057 108.791  0.00  0.00     0.381 N 
ATOM     19  H   LIG d   1       1.038  85.395 107.919  0.00  0.00    -0.090 HD
ATOM     20  H   LIG d   1      -0.001  85.710 109.128  0.00  0.00    -0.090 HD
ATOM     21  H   LIG d   1       0.263  84.162 108.662  0.00  0.00    -0.090 HD
ENDBRANCH   5  18
BRANCH   3  22
ATOM     22  C   LIG d   1       3.230  87.434 112.077  0.00  0.00     0.382 C 
ATOM     23  O   LIG d   1       2.484  88.345 112.511  0.00  0.00    -0.241 OA
ATOM     24  O   LIG d   1       4.455  87.639 111.980  0.00  0.00    -0.241 OA
ENDBRANCH   3  22
TORSDOF 7
ENDMDL
MODEL 8
REMARK VINA RESULT:      -5.6      3.326      5.452
REMARK  7 active torsions:
REMARK  status: ('A' for Active; 'I' for Inactive)
REMARK    1  A    between atoms: C_2  and  C_3 
REMARK    2  A    between atoms: C_3  and  O_6 
REMARK    3  A    between atoms: C_3  and  C_4 
REMARK    4  A    between atoms: C_7  and  O_6 
REMARK    5  A    between atoms: C_9  and  C_10 
REMARK    6  A    between atoms: N_15  and  C_14 
REMARK    7  A    between atoms: N_20  and  C_19 
REMARK       I    between atoms: C_22  and  N_20 
ROOT
ATOM      1  C   LIG d   1       2.968  85.144 111.926  0.00  0.00     0.161 C 
ATOM      2  C   LIG d   1       3.649  86.372 111.951  0.00  0.00     0.016 C 
ATOM      3  C   LIG d   1       3.869  87.116 113.132  0.00  0.00     0.038 C 
ATOM      4  C   LIG d   1       3.553  86.605 114.400  0.00  0.00     0.028 C 
ATOM      5  C   LIG d   1       2.411  85.596 114.379  0.00  0.00    -0.047 C 
ATOM      6  C   LIG d   1       2.714  84.517 113.314  0.00  0.00     0.091 C 
ENDROOT
BRANCH   1   7
ATOM      7  O   LIG d   1       3.669  84.213 111.077  0.00  0.00    -0.368 OA
BRANCH   7   8
ATOM      8  C   LIG d   1       3.226  84.150 109.699  0.00  0.00     0.119 C 
BRANCH   8   9
ATOM      9  C   LIG d   1       1.687  84.076 109.710  0.00  0.00     0.028 C 
ATOM     10  C   LIG d   1       1.051  84.907 108.583  0.00  0.00     0.006 C 
ENDBRANCH   8   9
BRANCH   8  11
ATOM     11  C   LIG d   1       3.689  82.855 109.024  0.00  0.00     0.028 C 
ATOM     12  C   LIG d   1       4.416  81.907 109.990  0.00  0.00     0.006 C 
ENDBRANCH   8  11
ENDBRANCH   7   8
ENDBRANCH   1   7
BRANCH   6  13
ATOM     13  N   LIG d   1       1.606  83.537 113.168  0.00  0.00    -0.311 N 
ATOM     14  C   LIG d   1       1.797  82.221 113.097  0.00  0.00     0.210 C 
ATOM     15  C   LIG d   1       0.521  81.391 112.929  0.00  0.00     0.109 C 
ATOM     16  O   LIG d   1       2.899  81.660 113.189  0.00  0.00    -0.276 OA
ATOM     17  H   LIG d   1       0.676  83.904 113.117  0.00  0.00     0.149 HD
ENDBRANCH   6  13
BRANCH   5  18
ATOM     18  N   LIG d   1       2.279  85.043 115.740  0.00  0.00     0.381 N 
ATOM     19  H   LIG d   1       1.316  84.859 115.939  0.00  0.00    -0.090 HD
ATOM     20  H   LIG d   1       2.614  85.722 116.401  0.00  0.00    -0.090 HD
ATOM     21  H   LIG d   1       2.808  84.203 115.819  0.00  0.00    -0.090 HD
ENDBRANCH   5  18
BRANCH   3  22
ATOM     22  C   LIG d   1       4.376  88.404 113.049  0.00  0.00     0.382 C 
ATOM     23  O   LIG d   1       3.642  89.385 113.317  0.00  0.00    -0.241 OA
ATOM     24  O   LIG d   1       5.545  88.600 112.666  0.00  0.00    -0.241 OA
ENDBRANCH   3  22
TORSDOF 7
ENDMDL
MODEL 9
REMARK VINA RESULT:      -5.6      2.131      4.050
REMARK  7 active torsions:
REMARK  status: ('A' for Active; 'I' for Inactive)
REMARK    1  A    between atoms: C_2  and  C_3 
REMARK    2  A    between atoms: C_3  and  O_6 
REMARK    3  A    between atoms: C_3  and  C_4 
REMARK    4  A    between atoms: C_7  and  O_6 
REMARK    5  A    between atoms: C_9  and  C_10 
REMARK    6  A    between atoms: N_15  and  C_14 
REMARK    7  A    between atoms: N_20  and  C_19 
REMARK       I    between atoms: C_22  and  N_20 
ROOT
ATOM      1  C   LIG d   1       0.203  81.787 110.479  0.00  0.00     0.161 C 
ATOM      2  C   LIG d   1       0.997  80.659 110.213  0.00  0.00     0.016 C 
ATOM      3  C   LIG d   1       2.358  80.738 109.837  0.00  0.00     0.038 C 
ATOM      4  C   LIG d   1       3.062  81.951 109.849  0.00  0.00     0.028 C 
ATOM      5  C   LIG d   1       2.173  83.169 109.621  0.00  0.00    -0.047 C 
ATOM      6  C   LIG d   1       0.982  83.112 110.606  0.00  0.00     0.091 C 
ENDROOT
BRANCH   1   7
ATOM      7  O   LIG d   1      -0.590  81.557 111.661  0.00  0.00    -0.368 OA
BRANCH   7   8
ATOM      8  C   LIG d   1       0.141  81.206 112.861  0.00  0.00     0.119 C 
BRANCH   8   9
ATOM      9  C   LIG d   1      -0.662  80.111 113.589  0.00  0.00     0.028 C 
ATOM     10  C   LIG d   1      -1.929  79.703 112.820  0.00  0.00     0.006 C 
ENDBRANCH   8   9
BRANCH   8  11
ATOM     11  C   LIG d   1       0.203  82.383 113.840  0.00  0.00     0.028 C 
ATOM     12  C   LIG d   1      -1.076  83.236 113.827  0.00  0.00     0.006 C 
ENDBRANCH   8  11
ENDBRANCH   7   8
ENDBRANCH   1   7
BRANCH   6  13
ATOM     13  N   LIG d   1       0.018  84.223 110.394  0.00  0.00    -0.311 N 
ATOM     14  C   LIG d   1       0.035  85.353 111.099  0.00  0.00     0.210 C 
ATOM     15  C   LIG d   1      -1.060  86.360 110.733  0.00  0.00     0.109 C 
ATOM     16  O   LIG d   1       0.873  85.631 111.970  0.00  0.00    -0.276 OA
ATOM     17  H   LIG d   1      -0.677  84.095 109.685  0.00  0.00     0.149 HD
ENDBRANCH   6  13
BRANCH   5  18
ATOM     18  N   LIG d   1       3.010  84.371 109.796  0.00  0.00     0.381 N 
ATOM     19  H   LIG d   1       3.034  84.630 110.762  0.00  0.00    -0.090 HD
ATOM     20  H   LIG d   1       2.604  85.128 109.276  0.00  0.00    -0.090 HD
ATOM     21  H   LIG d   1       3.935  84.192 109.470  0.00  0.00    -0.090 HD
ENDBRANCH   5  18
BRANCH   3  22
ATOM     22  C   LIG d   1       3.018  79.597 109.404  0.00  0.00     0.382 C 
ATOM     23  O   LIG d   1       2.367  78.560 109.135  0.00  0.00    -0.241 OA
ATOM     24  O   LIG d   1       4.261  79.580 109.323  0.00  0.00    -0.241 OA
ENDBRANCH   3  22
TORSDOF 7
ENDMDL
