MODEL 1
REMARK VINA RESULT:      -6.2      0.000      0.000
REMARK  7 active torsions:
REMARK  status: ('A' for Active; 'I' for Inactive)
REMARK    1  A    between atoms: C_2  and  C_3 
REMARK    2  A    between atoms: C_3  and  O_6 
REMARK    3  A    between atoms: C_3  and  C_4 
REMARK    4  A    between atoms: C_7  and  O_6 
REMARK    5  A    between atoms: C_9  and  C_10 
REMARK    6  A    between atoms: N_15  and  C_14 
REMARK    7  A    between atoms: N_20  and  C_19 
REMARK       I    between atoms: C_22  and  N_20 
ROOT
ATOM      1  C   LIG d   1       0.368  83.617 110.400  0.00  0.00     0.161 C 
ATOM      2  C   LIG d   1       0.261  84.716 111.269  0.00  0.00     0.016 C 
ATOM      3  C   LIG d   1      -0.088  84.598 112.634  0.00  0.00     0.038 C 
ATOM      4  C   LIG d   1      -0.207  83.350 113.263  0.00  0.00     0.028 C 
ATOM      5  C   LIG d   1      -0.604  82.227 112.311  0.00  0.00    -0.047 C 
ATOM      6  C   LIG d   1       0.350  82.240 111.095  0.00  0.00     0.091 C 
ENDROOT
BRANCH   1   7
ATOM      7  O   LIG d   1       1.548  83.752 109.584  0.00  0.00    -0.368 OA
BRANCH   7   8
ATOM      8  C   LIG d   1       2.783  83.267 110.165  0.00  0.00     0.119 C 
BRANCH   8   9
ATOM      9  C   LIG d   1       3.634  84.497 110.537  0.00  0.00     0.028 C 
ATOM     10  C   LIG d   1       3.903  84.590 112.049  0.00  0.00     0.006 C 
ENDBRANCH   8   9
BRANCH   8  11
ATOM     11  C   LIG d   1       3.616  82.493 109.139  0.00  0.00     0.028 C 
ATOM     12  C   LIG d   1       2.853  82.226 107.832  0.00  0.00     0.006 C 
ENDBRANCH   8  11
ENDBRANCH   7   8
ENDBRANCH   1   7
BRANCH   6  13
ATOM     13  N   LIG d   1      -0.020  81.226 110.073  0.00  0.00    -0.311 N 
ATOM     14  C   LIG d   1       0.712  80.144 109.815  0.00  0.00     0.210 C 
ATOM     15  C   LIG d   1       0.160  79.238 108.710  0.00  0.00     0.109 C 
ATOM     16  O   LIG d   1       1.750  79.832 110.418  0.00  0.00    -0.276 OA
ATOM     17  H   LIG d   1      -0.864  81.384 109.558  0.00  0.00     0.149 HD
ENDBRANCH   6  13
BRANCH   5  18
ATOM     18  N   LIG d   1      -0.557  80.962 113.069  0.00  0.00     0.381 N 
ATOM     19  H   LIG d   1       0.122  80.350 112.664  0.00  0.00    -0.090 HD
ATOM     20  H   LIG d   1      -1.456  80.517 113.015  0.00  0.00    -0.090 HD
ATOM     21  H   LIG d   1      -0.325  81.144 114.021  0.00  0.00    -0.090 HD
ENDBRANCH   5  18
BRANCH   3  22
ATOM     22  C   LIG d   1      -0.360  85.738 113.375  0.00  0.00     0.382 C 
ATOM     23  O   LIG d   1      -1.527  86.197 113.413  0.00  0.00    -0.241 OA
ATOM     24  O   LIG d   1       0.555  86.339 113.969  0.00  0.00    -0.241 OA
ENDBRANCH   3  22
TORSDOF 7
ENDMDL
MODEL 2
REMARK VINA RESULT:      -6.2      2.267      3.838
REMARK  7 active torsions:
REMARK  status: ('A' for Active; 'I' for Inactive)
REMARK    1  A    between atoms: C_2  and  C_3 
REMARK    2  A    between atoms: C_3  and  O_6 
REMARK    3  A    between atoms: C_3  and  C_4 
REMARK    4  A    between atoms: C_7  and  O_6 
REMARK    5  A    between atoms: C_9  and  C_10 
REMARK    6  A    between atoms: N_15  and  C_14 
REMARK    7  A    between atoms: N_20  and  C_19 
REMARK       I    between atoms: C_22  and  N_20 
ROOT
ATOM      1  C   LIG d   1       0.496  82.465 111.096  0.00  0.00     0.161 C 
ATOM      2  C   LIG d   1      -0.573  82.225 111.975  0.00  0.00     0.016 C 
ATOM      3  C   LIG d   1      -1.066  80.932 112.267  0.00  0.00     0.038 C 
ATOM      4  C   LIG d   1      -0.419  79.773 111.813  0.00  0.00     0.028 C 
ATOM      5  C   LIG d   1       0.358  79.981 110.517  0.00  0.00    -0.047 C 
ATOM      6  C   LIG d   1       1.285  81.207 110.678  0.00  0.00     0.091 C 
ENDROOT
BRANCH   1   7
ATOM      7  O   LIG d   1       1.385  83.448 111.665  0.00  0.00    -0.368 OA
BRANCH   7   8
ATOM      8  C   LIG d   1       1.141  84.824 111.284  0.00  0.00     0.119 C 
BRANCH   8   9
ATOM      9  C   LIG d   1       0.581  84.815 109.848  0.00  0.00     0.028 C 
ATOM     10  C   LIG d   1      -0.702  85.652 109.714  0.00  0.00     0.006 C 
ENDBRANCH   8   9
BRANCH   8  11
ATOM     11  C   LIG d   1       2.447  85.620 111.204  0.00  0.00     0.028 C 
ATOM     12  C   LIG d   1       3.652  84.750 110.812  0.00  0.00     0.006 C 
ENDBRANCH   8  11
ENDBRANCH   7   8
ENDBRANCH   1   7
BRANCH   6  13
ATOM     13  N   LIG d   1       2.019  81.531 109.428  0.00  0.00    -0.311 N 
ATOM     14  C   LIG d   1       3.344  81.457 109.316  0.00  0.00     0.210 C 
ATOM     15  C   LIG d   1       3.900  81.854 107.944  0.00  0.00     0.109 C 
ATOM     16  O   LIG d   1       4.110  81.070 110.212  0.00  0.00    -0.276 OA
ATOM     17  H   LIG d   1       1.473  81.824 108.641  0.00  0.00     0.149 HD
ENDBRANCH   6  13
BRANCH   5  18
ATOM     18  N   LIG d   1       1.092  78.733 110.233  0.00  0.00     0.381 N 
ATOM     19  H   LIG d   1       0.958  78.083 110.981  0.00  0.00    -0.090 HD
ATOM     20  H   LIG d   1       2.073  78.941 110.169  0.00  0.00    -0.090 HD
ATOM     21  H   LIG d   1       0.773  78.336 109.377  0.00  0.00    -0.090 HD
ENDBRANCH   5  18
BRANCH   3  22
ATOM     22  C   LIG d   1      -2.241  80.791 112.988  0.00  0.00     0.382 C 
ATOM     23  O   LIG d   1      -2.455  79.740 113.639  0.00  0.00    -0.241 OA
ATOM     24  O   LIG d   1      -3.110  81.683 112.960  0.00  0.00    -0.241 OA
ENDBRANCH   3  22
TORSDOF 7
ENDMDL
MODEL 3
REMARK VINA RESULT:      -6.2      2.480      4.172
REMARK  7 active torsions:
REMARK  status: ('A' for Active; 'I' for Inactive)
REMARK    1  A    between atoms: C_2  and  C_3 
REMARK    2  A    between atoms: C_3  and  O_6 
REMARK    3  A    between atoms: C_3  and  C_4 
REMARK    4  A    between atoms: C_7  and  O_6 
REMARK    5  A    between atoms: C_9  and  C_10 
REMARK    6  A    between atoms: N_15  and  C_14 
REMARK    7  A    between atoms: N_20  and  C_19 
REMARK       I    between atoms: C_22  and  N_20 
ROOT
ATOM      1  C   LIG d   1       1.331  82.570 111.276  0.00  0.00     0.161 C 
ATOM      2  C   LIG d   1       0.240  81.723 111.536  0.00  0.00     0.016 C 
ATOM      3  C   LIG d   1      -0.772  82.025 112.475  0.00  0.00     0.038 C 
ATOM      4  C   LIG d   1      -0.844  83.272 113.113  0.00  0.00     0.028 C 
ATOM      5  C   LIG d   1       0.511  83.957 113.259  0.00  0.00    -0.047 C 
ATOM      6  C   LIG d   1       1.210  83.984 111.880  0.00  0.00     0.091 C 
ENDROOT
BRANCH   1   7
ATOM      7  O   LIG d   1       1.559  82.650 109.855  0.00  0.00    -0.368 OA
BRANCH   7   8
ATOM      8  C   LIG d   1       2.467  81.668 109.299  0.00  0.00     0.119 C 
BRANCH   8   9
ATOM      9  C   LIG d   1       3.755  81.697 110.144  0.00  0.00     0.028 C 
ATOM     10  C   LIG d   1       4.786  82.706 109.609  0.00  0.00     0.006 C 
ENDBRANCH   8   9
BRANCH   8  11
ATOM     11  C   LIG d   1       2.904  82.052 107.882  0.00  0.00     0.028 C 
ATOM     12  C   LIG d   1       1.893  82.969 107.175  0.00  0.00     0.006 C 
ENDBRANCH   8  11
ENDBRANCH   7   8
ENDBRANCH   1   7
BRANCH   6  13
ATOM     13  N   LIG d   1       2.578  84.562 111.950  0.00  0.00    -0.311 N 
ATOM     14  C   LIG d   1       2.920  85.709 111.366  0.00  0.00     0.210 C 
ATOM     15  C   LIG d   1       4.386  86.113 111.545  0.00  0.00     0.109 C 
ATOM     16  O   LIG d   1       2.140  86.445 110.743  0.00  0.00    -0.276 OA
ATOM     17  H   LIG d   1       3.266  84.045 112.462  0.00  0.00     0.149 HD
ENDBRANCH   6  13
BRANCH   5  18
ATOM     18  N   LIG d   1       0.272  85.303 113.813  0.00  0.00     0.381 N 
ATOM     19  H   LIG d   1       0.778  85.983 113.280  0.00  0.00    -0.090 HD
ATOM     20  H   LIG d   1       0.609  85.329 114.759  0.00  0.00    -0.090 HD
ATOM     21  H   LIG d   1      -0.701  85.512 113.793  0.00  0.00    -0.090 HD
ENDBRANCH   5  18
BRANCH   3  22
ATOM     22  C   LIG d   1      -1.706  81.057 112.814  0.00  0.00     0.382 C 
ATOM     23  O   LIG d   1      -2.896  81.175 112.437  0.00  0.00    -0.241 OA
ATOM     24  O   LIG d   1      -1.382  80.091 113.530  0.00  0.00    -0.241 OA
ENDBRANCH   3  22
TORSDOF 7
ENDMDL
MODEL 4
REMARK VINA RESULT:      -5.8      2.995      5.098
REMARK  7 active torsions:
REMARK  status: ('A' for Active; 'I' for Inactive)
REMARK    1  A    between atoms: C_2  and  C_3 
REMARK    2  A    between atoms: C_3  and  O_6 
REMARK    3  A    between atoms: C_3  and  C_4 
REMARK    4  A    between atoms: C_7  and  O_6 
REMARK    5  A    between atoms: C_9  and  C_10 
REMARK    6  A    between atoms: N_15  and  C_14 
REMARK    7  A    between atoms: N_20  and  C_19 
REMARK       I    between atoms: C_22  and  N_20 
ROOT
ATOM      1  C   LIG d   1       0.884  80.845 111.415  0.00  0.00     0.161 C 
ATOM      2  C   LIG d   1      -0.223  80.190 111.980  0.00  0.00     0.016 C 
ATOM      3  C   LIG d   1      -0.870  79.089 111.373  0.00  0.00     0.038 C 
ATOM      4  C   LIG d   1      -0.356  78.469 110.224  0.00  0.00     0.028 C 
ATOM      5  C   LIG d   1       0.464  79.406 109.345  0.00  0.00    -0.047 C 
ATOM      6  C   LIG d   1       1.526  80.112 110.218  0.00  0.00     0.091 C 
ENDROOT
BRANCH   1   7
ATOM      7  O   LIG d   1       1.871  81.103 112.432  0.00  0.00    -0.368 OA
BRANCH   7   8
ATOM      8  C   LIG d   1       2.023  82.486 112.837  0.00  0.00     0.119 C 
BRANCH   8   9
ATOM      9  C   LIG d   1       3.530  82.805 112.842  0.00  0.00     0.028 C 
ATOM     10  C   LIG d   1       4.399  81.536 112.821  0.00  0.00     0.006 C 
ENDBRANCH   8   9
BRANCH   8  11
ATOM     11  C   LIG d   1       1.559  82.698 114.281  0.00  0.00     0.028 C 
ATOM     12  C   LIG d   1       0.358  83.651 114.388  0.00  0.00     0.006 C 
ENDBRANCH   8  11
ENDBRANCH   7   8
ENDBRANCH   1   7
BRANCH   6  13
ATOM     13  N   LIG d   1       2.317  81.110 109.452  0.00  0.00    -0.311 N 
ATOM     14  C   LIG d   1       3.624  80.991 109.223  0.00  0.00     0.210 C 
ATOM     15  C   LIG d   1       4.249  82.142 108.429  0.00  0.00     0.109 C 
ATOM     16  O   LIG d   1       4.318  80.025 109.575  0.00  0.00    -0.276 OA
ATOM     17  H   LIG d   1       1.827  81.910 109.103  0.00  0.00     0.149 HD
ENDBRANCH   6  13
BRANCH   5  18
ATOM     18  N   LIG d   1       1.051  78.599 108.259  0.00  0.00     0.381 N 
ATOM     19  H   LIG d   1       0.324  78.143 107.744  0.00  0.00    -0.090 HD
ATOM     20  H   LIG d   1       1.642  77.893 108.662  0.00  0.00    -0.090 HD
ATOM     21  H   LIG d   1       1.584  79.181 107.651  0.00  0.00    -0.090 HD
ENDBRANCH   5  18
BRANCH   3  22
ATOM     22  C   LIG d   1      -2.067  78.623 111.894  0.00  0.00     0.382 C 
ATOM     23  O   LIG d   1      -2.951  79.435 112.258  0.00  0.00    -0.241 OA
ATOM     24  O   LIG d   1      -2.257  77.401 112.046  0.00  0.00    -0.241 OA
ENDBRANCH   3  22
TORSDOF 7
ENDMDL
MODEL 5
REMARK VINA RESULT:      -5.5      2.415      5.984
REMARK  7 active torsions:
REMARK  status: ('A' for Active; 'I' for Inactive)
REMARK    1  A    between atoms: C_2  and  C_3 
REMARK    2  A    between atoms: C_3  and  O_6 
REMARK    3  A    between atoms: C_3  and  C_4 
REMARK    4  A    between atoms: C_7  and  O_6 
REMARK    5  A    between atoms: C_9  and  C_10 
REMARK    6  A    between atoms: N_15  and  C_14 
REMARK    7  A    between atoms: N_20  and  C_19 
REMARK       I    between atoms: C_22  and  N_20 
ROOT
ATOM      1  C   LIG d   1       1.333  82.485 110.694  0.00  0.00     0.161 C 
ATOM      2  C   LIG d   1       0.982  81.228 110.173  0.00  0.00     0.016 C 
ATOM      3  C   LIG d   1       1.863  80.430 109.408  0.00  0.00     0.038 C 
ATOM      4  C   LIG d   1       3.213  80.769 109.239  0.00  0.00     0.028 C 
ATOM      5  C   LIG d   1       3.476  82.269 109.319  0.00  0.00    -0.047 C 
ATOM      6  C   LIG d   1       2.837  82.821 110.614  0.00  0.00     0.091 C 
ENDROOT
BRANCH   1   7
ATOM      7  O   LIG d   1       0.867  82.598 112.054  0.00  0.00    -0.368 OA
BRANCH   7   8
ATOM      8  C   LIG d   1      -0.418  83.242 112.235  0.00  0.00     0.119 C 
BRANCH   8   9
ATOM      9  C   LIG d   1      -0.151  84.679 112.725  0.00  0.00     0.028 C 
ATOM     10  C   LIG d   1      -0.351  85.724 111.615  0.00  0.00     0.006 C 
ENDBRANCH   8   9
BRANCH   8  11
ATOM     11  C   LIG d   1      -1.223  82.575 113.354  0.00  0.00     0.028 C 
ATOM     12  C   LIG d   1      -1.921  81.284 112.898  0.00  0.00     0.006 C 
ENDBRANCH   8  11
ENDBRANCH   7   8
ENDBRANCH   1   7
BRANCH   6  13
ATOM     13  N   LIG d   1       2.975  84.296 110.729  0.00  0.00    -0.311 N 
ATOM     14  C   LIG d   1       3.545  84.900 111.771  0.00  0.00     0.210 C 
ATOM     15  C   LIG d   1       3.566  86.430 111.699  0.00  0.00     0.109 C 
ATOM     16  O   LIG d   1       4.063  84.313 112.732  0.00  0.00    -0.276 OA
ATOM     17  H   LIG d   1       2.609  84.849 109.979  0.00  0.00     0.149 HD
ENDBRANCH   6  13
BRANCH   5  18
ATOM     18  N   LIG d   1       4.936  82.469 109.264  0.00  0.00     0.381 N 
ATOM     19  H   LIG d   1       5.335  82.309 110.168  0.00  0.00    -0.090 HD
ATOM     20  H   LIG d   1       5.124  83.421 109.001  0.00  0.00    -0.090 HD
ATOM     21  H   LIG d   1       5.341  81.847 108.600  0.00  0.00    -0.090 HD
ENDBRANCH   5  18
BRANCH   3  22
ATOM     22  C   LIG d   1       1.383  79.296 108.769  0.00  0.00     0.382 C 
ATOM     23  O   LIG d   1       2.139  78.312 108.587  0.00  0.00    -0.241 OA
ATOM     24  O   LIG d   1       0.217  79.263 108.333  0.00  0.00    -0.241 OA
ENDBRANCH   3  22
TORSDOF 7
ENDMDL
MODEL 6
REMARK VINA RESULT:      -5.4      2.108      3.144
REMARK  7 active torsions:
REMARK  status: ('A' for Active; 'I' for Inactive)
REMARK    1  A    between atoms: C_2  and  C_3 
REMARK    2  A    between atoms: C_3  and  O_6 
REMARK    3  A    between atoms: C_3  and  C_4 
REMARK    4  A    between atoms: C_7  and  O_6 
REMARK    5  A    between atoms: C_9  and  C_10 
REMARK    6  A    between atoms: N_15  and  C_14 
REMARK    7  A    between atoms: N_20  and  C_19 
REMARK       I    between atoms: C_22  and  N_20 
ROOT
ATOM      1  C   LIG d   1       0.656  83.898 110.680  0.00  0.00     0.161 C 
ATOM      2  C   LIG d   1       1.515  85.009 110.634  0.00  0.00     0.016 C 
ATOM      3  C   LIG d   1       2.098  85.590 111.784  0.00  0.00     0.038 C 
ATOM      4  C   LIG d   1       1.982  85.001 113.052  0.00  0.00     0.028 C 
ATOM      5  C   LIG d   1       0.714  84.171 113.220  0.00  0.00    -0.047 C 
ATOM      6  C   LIG d   1       0.607  83.175 112.042  0.00  0.00     0.091 C 
ENDROOT
BRANCH   1   7
ATOM      7  O   LIG d   1       1.002  82.970 109.633  0.00  0.00    -0.368 OA
BRANCH   7   8
ATOM      8  C   LIG d   1       2.311  83.141 109.036  0.00  0.00     0.119 C 
BRANCH   8   9
ATOM      9  C   LIG d   1       2.277  82.475 107.647  0.00  0.00     0.028 C 
ATOM     10  C   LIG d   1       2.622  80.977 107.705  0.00  0.00     0.006 C 
ENDBRANCH   8   9
BRANCH   8  11
ATOM     11  C   LIG d   1       3.385  82.384 109.822  0.00  0.00     0.028 C 
ATOM     12  C   LIG d   1       4.577  83.273 110.211  0.00  0.00     0.006 C 
ENDBRANCH   8  11
ENDBRANCH   7   8
ENDBRANCH   1   7
BRANCH   6  13
ATOM     13  N   LIG d   1      -0.649  82.381 112.085  0.00  0.00    -0.311 N 
ATOM     14  C   LIG d   1      -0.749  81.201 112.694  0.00  0.00     0.210 C 
ATOM     15  C   LIG d   1      -2.129  80.541 112.600  0.00  0.00     0.109 C 
ATOM     16  O   LIG d   1       0.164  80.653 113.329  0.00  0.00    -0.276 OA
ATOM     17  H   LIG d   1      -1.448  82.766 111.620  0.00  0.00     0.149 HD
ENDBRANCH   6  13
BRANCH   5  18
ATOM     18  N   LIG d   1       0.789  83.505 114.535  0.00  0.00     0.381 N 
ATOM     19  H   LIG d   1       0.013  83.786 115.100  0.00  0.00    -0.090 HD
ATOM     20  H   LIG d   1       1.635  83.791 114.996  0.00  0.00    -0.090 HD
ATOM     21  H   LIG d   1       0.783  82.516 114.417  0.00  0.00    -0.090 HD
ENDBRANCH   5  18
BRANCH   3  22
ATOM     22  C   LIG d   1       2.775  86.795 111.676  0.00  0.00     0.382 C 
ATOM     23  O   LIG d   1       2.136  87.874 111.663  0.00  0.00    -0.241 OA
ATOM     24  O   LIG d   1       4.014  86.815 111.548  0.00  0.00    -0.241 OA
ENDBRANCH   3  22
TORSDOF 7
ENDMDL
MODEL 7
REMARK VINA RESULT:      -5.4      1.894      4.050
REMARK  7 active torsions:
REMARK  status: ('A' for Active; 'I' for Inactive)
REMARK    1  A    between atoms: C_2  and  C_3 
REMARK    2  A    between atoms: C_3  and  O_6 
REMARK    3  A    between atoms: C_3  and  C_4 
REMARK    4  A    between atoms: C_7  and  O_6 
REMARK    5  A    between atoms: C_9  and  C_10 
REMARK    6  A    between atoms: N_15  and  C_14 
REMARK    7  A    between atoms: N_20  and  C_19 
REMARK       I    between atoms: C_22  and  N_20 
ROOT
ATOM      1  C   LIG d   1       0.228  82.699 111.379  0.00  0.00     0.161 C 
ATOM      2  C   LIG d   1      -0.185  83.400 112.524  0.00  0.00     0.016 C 
ATOM      3  C   LIG d   1      -0.319  84.807 112.569  0.00  0.00     0.038 C 
ATOM      4  C   LIG d   1      -0.192  85.600 111.419  0.00  0.00     0.028 C 
ATOM      5  C   LIG d   1       0.717  84.990 110.358  0.00  0.00    -0.047 C 
ATOM      6  C   LIG d   1       0.263  83.537 110.084  0.00  0.00     0.091 C 
ENDROOT
BRANCH   1   7
ATOM      7  O   LIG d   1      -0.597  81.531 111.197  0.00  0.00    -0.368 OA
BRANCH   7   8
ATOM      8  C   LIG d   1      -0.009  80.267 111.594  0.00  0.00     0.119 C 
BRANCH   8   9
ATOM      9  C   LIG d   1      -0.055  79.330 110.371  0.00  0.00     0.028 C 
ATOM     10  C   LIG d   1       1.325  79.152 109.716  0.00  0.00     0.006 C 
ENDBRANCH   8   9
BRANCH   8  11
ATOM     11  C   LIG d   1      -0.852  79.574 112.668  0.00  0.00     0.028 C 
ATOM     12  C   LIG d   1      -2.274  80.146 112.771  0.00  0.00     0.006 C 
ENDBRANCH   8  11
ENDBRANCH   7   8
ENDBRANCH   1   7
BRANCH   6  13
ATOM     13  N   LIG d   1       1.151  82.838 109.119  0.00  0.00    -0.311 N 
ATOM     14  C   LIG d   1       2.472  82.751 109.269  0.00  0.00     0.210 C 
ATOM     15  C   LIG d   1       3.201  82.004 108.148  0.00  0.00     0.109 C 
ATOM     16  O   LIG d   1       3.104  83.194 110.239  0.00  0.00    -0.276 OA
ATOM     17  H   LIG d   1       0.717  82.423 108.318  0.00  0.00     0.149 HD
ENDBRANCH   6  13
BRANCH   5  18
ATOM     18  N   LIG d   1       0.649  85.852 109.163  0.00  0.00     0.381 N 
ATOM     19  H   LIG d   1       0.867  85.316 108.346  0.00  0.00    -0.090 HD
ATOM     20  H   LIG d   1       1.331  86.584 109.251  0.00  0.00    -0.090 HD
ATOM     21  H   LIG d   1      -0.263  86.245 109.078  0.00  0.00    -0.090 HD
ENDBRANCH   5  18
BRANCH   3  22
ATOM     22  C   LIG d   1      -0.543  85.437 113.783  0.00  0.00     0.382 C 
ATOM     23  O   LIG d   1      -1.436  85.012 114.555  0.00  0.00    -0.241 OA
ATOM     24  O   LIG d   1       0.108  86.452 114.098  0.00  0.00    -0.241 OA
ENDBRANCH   3  22
TORSDOF 7
ENDMDL
MODEL 8
REMARK VINA RESULT:      -5.4      1.959      3.938
REMARK  7 active torsions:
REMARK  status: ('A' for Active; 'I' for Inactive)
REMARK    1  A    between atoms: C_2  and  C_3 
REMARK    2  A    between atoms: C_3  and  O_6 
REMARK    3  A    between atoms: C_3  and  C_4 
REMARK    4  A    between atoms: C_7  and  O_6 
REMARK    5  A    between atoms: C_9  and  C_10 
REMARK    6  A    between atoms: N_15  and  C_14 
REMARK    7  A    between atoms: N_20  and  C_19 
REMARK       I    between atoms: C_22  and  N_20 
ROOT
ATOM      1  C   LIG d   1       1.392  82.366 111.999  0.00  0.00     0.161 C 
ATOM      2  C   LIG d   1       0.498  83.036 112.850  0.00  0.00     0.016 C 
ATOM      3  C   LIG d   1      -0.194  84.213 112.481  0.00  0.00     0.038 C 
ATOM      4  C   LIG d   1      -0.152  84.719 111.174  0.00  0.00     0.028 C 
ATOM      5  C   LIG d   1       1.130  84.365 110.428  0.00  0.00    -0.047 C 
ATOM      6  C   LIG d   1       1.366  82.840 110.530  0.00  0.00     0.091 C 
ENDROOT
BRANCH   1   7
ATOM      7  O   LIG d   1       1.164  80.945 112.070  0.00  0.00    -0.368 OA
BRANCH   7   8
ATOM      8  C   LIG d   1      -0.023  80.455 111.399  0.00  0.00     0.119 C 
BRANCH   8   9
ATOM      9  C   LIG d   1      -0.860  79.687 112.440  0.00  0.00     0.028 C 
ATOM     10  C   LIG d   1      -2.104  80.474 112.888  0.00  0.00     0.006 C 
ENDBRANCH   8   9
BRANCH   8  11
ATOM     11  C   LIG d   1       0.331  79.425 110.323  0.00  0.00     0.028 C 
ATOM     12  C   LIG d   1      -0.691  78.281 110.234  0.00  0.00     0.006 C 
ENDBRANCH   8  11
ENDBRANCH   7   8
ENDBRANCH   1   7
BRANCH   6  13
ATOM     13  N   LIG d   1       2.644  82.420 109.899  0.00  0.00    -0.311 N 
ATOM     14  C   LIG d   1       2.732  81.978 108.646  0.00  0.00     0.210 C 
ATOM     15  C   LIG d   1       4.142  81.578 108.199  0.00  0.00     0.109 C 
ATOM     16  O   LIG d   1       1.782  81.908 107.852  0.00  0.00    -0.276 OA
ATOM     17  H   LIG d   1       3.470  82.474 110.462  0.00  0.00     0.149 HD
ENDBRANCH   6  13
BRANCH   5  18
ATOM     18  N   LIG d   1       0.981  84.834 109.038  0.00  0.00     0.381 N 
ATOM     19  H   LIG d   1       0.095  85.284 108.925  0.00  0.00    -0.090 HD
ATOM     20  H   LIG d   1       1.013  84.041 108.421  0.00  0.00    -0.090 HD
ATOM     21  H   LIG d   1       1.715  85.470 108.812  0.00  0.00    -0.090 HD
ENDBRANCH   5  18
BRANCH   3  22
ATOM     22  C   LIG d   1      -0.907  84.919 113.438  0.00  0.00     0.382 C 
ATOM     23  O   LIG d   1      -1.049  86.161 113.324  0.00  0.00    -0.241 OA
ATOM     24  O   LIG d   1      -1.371  84.338 114.437  0.00  0.00    -0.241 OA
ENDBRANCH   3  22
TORSDOF 7
ENDMDL
MODEL 9
REMARK VINA RESULT:      -5.4      2.681      5.624
REMARK  7 active torsions:
REMARK  status: ('A' for Active; 'I' for Inactive)
REMARK    1  A    between atoms: C_2  and  C_3 
REMARK    2  A    between atoms: C_3  and  O_6 
REMARK    3  A    between atoms: C_3  and  C_4 
REMARK    4  A    between atoms: C_7  and  O_6 
REMARK    5  A    between atoms: C_9  and  C_10 
REMARK    6  A    between atoms: N_15  and  C_14 
REMARK    7  A    between atoms: N_20  and  C_19 
REMARK       I    between atoms: C_22  and  N_20 
ROOT
ATOM      1  C   LIG d   1       2.671  82.843 110.672  0.00  0.00     0.161 C 
ATOM      2  C   LIG d   1       3.171  81.536 110.547  0.00  0.00     0.016 C 
ATOM      3  C   LIG d   1       3.156  80.809 109.335  0.00  0.00     0.038 C 
ATOM      4  C   LIG d   1       2.774  81.400 108.121  0.00  0.00     0.028 C 
ATOM      5  C   LIG d   1       1.789  82.552 108.291  0.00  0.00    -0.047 C 
ATOM      6  C   LIG d   1       2.353  83.544 109.334  0.00  0.00     0.091 C 
ENDROOT
BRANCH   1   7
ATOM      7  O   LIG d   1       3.582  83.643 111.452  0.00  0.00    -0.368 OA
BRANCH   7   8
ATOM      8  C   LIG d   1       3.114  84.045 112.763  0.00  0.00     0.119 C 
BRANCH   8   9
ATOM      9  C   LIG d   1       1.841  83.233 113.070  0.00  0.00     0.028 C 
ATOM     10  C   LIG d   1       0.776  84.065 113.804  0.00  0.00     0.006 C 
ENDBRANCH   8   9
BRANCH   8  11
ATOM     11  C   LIG d   1       2.670  85.511 112.770  0.00  0.00     0.028 C 
ATOM     12  C   LIG d   1       3.587  86.415 111.930  0.00  0.00     0.006 C 
ENDBRANCH   8  11
ENDBRANCH   7   8
ENDBRANCH   1   7
BRANCH   6  13
ATOM     13  N   LIG d   1       1.413  84.658 109.623  0.00  0.00    -0.311 N 
ATOM     14  C   LIG d   1       0.180  84.474 110.091  0.00  0.00     0.210 C 
ATOM     15  C   LIG d   1      -0.631  85.757 110.301  0.00  0.00     0.109 C 
ATOM     16  O   LIG d   1      -0.309  83.372 110.384  0.00  0.00    -0.276 OA
ATOM     17  H   LIG d   1       1.738  85.588 109.443  0.00  0.00     0.149 HD
ENDBRANCH   6  13
BRANCH   5  18
ATOM     18  N   LIG d   1       1.585  83.163 106.964  0.00  0.00     0.381 N 
ATOM     19  H   LIG d   1       0.690  83.610 106.931  0.00  0.00    -0.090 HD
ATOM     20  H   LIG d   1       1.601  82.439 106.267  0.00  0.00    -0.090 HD
ATOM     21  H   LIG d   1       2.303  83.828 106.780  0.00  0.00    -0.090 HD
ENDBRANCH   5  18
BRANCH   3  22
ATOM     22  C   LIG d   1       3.488  79.463 109.336  0.00  0.00     0.382 C 
ATOM     23  O   LIG d   1       4.693  79.115 109.352  0.00  0.00    -0.241 OA
ATOM     24  O   LIG d   1       2.599  78.593 109.277  0.00  0.00    -0.241 OA
ENDBRANCH   3  22
TORSDOF 7
ENDMDL
