MODEL 1
REMARK VINA RESULT:      -6.4      0.000      0.000
REMARK  7 active torsions:
REMARK  status: ('A' for Active; 'I' for Inactive)
REMARK    1  A    between atoms: C_2  and  C_3 
REMARK    2  A    between atoms: C_3  and  O_6 
REMARK    3  A    between atoms: C_3  and  C_4 
REMARK    4  A    between atoms: C_7  and  O_6 
REMARK    5  A    between atoms: C_9  and  C_10 
REMARK    6  A    between atoms: N_15  and  C_14 
REMARK    7  A    between atoms: N_20  and  C_19 
REMARK       I    between atoms: C_22  and  N_20 
ROOT
ATOM      1  C   LIG d   1       1.657  83.063 111.863  0.00  0.00     0.161 C 
ATOM      2  C   LIG d   1       2.726  82.764 111.002  0.00  0.00     0.016 C 
ATOM      3  C   LIG d   1       2.826  81.555 110.275  0.00  0.00     0.038 C 
ATOM      4  C   LIG d   1       1.781  80.620 110.245  0.00  0.00     0.028 C 
ATOM      5  C   LIG d   1       0.907  80.648 111.493  0.00  0.00    -0.047 C 
ATOM      6  C   LIG d   1       0.454  82.103 111.756  0.00  0.00     0.091 C 
ENDROOT
BRANCH   1   7
ATOM      7  O   LIG d   1       1.231  84.424 111.660  0.00  0.00    -0.368 OA
BRANCH   7   8
ATOM      8  C   LIG d   1       1.878  85.140 110.578  0.00  0.00     0.119 C 
BRANCH   8   9
ATOM      9  C   LIG d   1       2.525  86.402 111.181  0.00  0.00     0.028 C 
ATOM     10  C   LIG d   1       4.015  86.201 111.505  0.00  0.00     0.006 C 
ENDBRANCH   8   9
BRANCH   8  11
ATOM     11  C   LIG d   1       0.856  85.654 109.560  0.00  0.00     0.028 C 
ATOM     12  C   LIG d   1      -0.589  85.581 110.078  0.00  0.00     0.006 C 
ENDBRANCH   8  11
ENDBRANCH   7   8
ENDBRANCH   1   7
BRANCH   6  13
ATOM     13  N   LIG d   1      -0.337  82.232 113.008  0.00  0.00    -0.311 N 
ATOM     14  C   LIG d   1      -1.665  82.133 113.050  0.00  0.00     0.210 C 
ATOM     15  C   LIG d   1      -2.284  82.318 114.439  0.00  0.00     0.109 C 
ATOM     16  O   LIG d   1      -2.386  81.877 112.074  0.00  0.00    -0.276 OA
ATOM     17  H   LIG d   1       0.171  82.410 113.852  0.00  0.00     0.149 HD
ENDBRANCH   6  13
BRANCH   5  18
ATOM     18  N   LIG d   1      -0.221  79.723 111.269  0.00  0.00     0.381 N 
ATOM     19  H   LIG d   1      -0.885  80.143 110.650  0.00  0.00    -0.090 HD
ATOM     20  H   LIG d   1      -0.676  79.546 112.147  0.00  0.00    -0.090 HD
ATOM     21  H   LIG d   1       0.112  78.868 110.880  0.00  0.00    -0.090 HD
ENDBRANCH   5  18
BRANCH   3  22
ATOM     22  C   LIG d   1       4.000  81.254 109.600  0.00  0.00     0.382 C 
ATOM     23  O   LIG d   1       4.275  80.062 109.323  0.00  0.00    -0.241 OA
ATOM     24  O   LIG d   1       4.808  82.155 109.305  0.00  0.00    -0.241 OA
ENDBRANCH   3  22
TORSDOF 7
ENDMDL
MODEL 2
REMARK VINA RESULT:      -6.0     11.772     14.792
REMARK  7 active torsions:
REMARK  status: ('A' for Active; 'I' for Inactive)
REMARK    1  A    between atoms: C_2  and  C_3 
REMARK    2  A    between atoms: C_3  and  O_6 
REMARK    3  A    between atoms: C_3  and  C_4 
REMARK    4  A    between atoms: C_7  and  O_6 
REMARK    5  A    between atoms: C_9  and  C_10 
REMARK    6  A    between atoms: N_15  and  C_14 
REMARK    7  A    between atoms: N_20  and  C_19 
REMARK       I    between atoms: C_22  and  N_20 
ROOT
ATOM      1  C   LIG d   1      -7.564  74.489 118.545  0.00  0.00     0.161 C 
ATOM      2  C   LIG d   1      -8.813  75.131 118.583  0.00  0.00     0.016 C 
ATOM      3  C   LIG d   1      -9.081  76.353 117.923  0.00  0.00     0.038 C 
ATOM      4  C   LIG d   1      -8.155  76.942 117.050  0.00  0.00     0.028 C 
ATOM      5  C   LIG d   1      -6.707  76.595 117.379  0.00  0.00    -0.047 C 
ATOM      6  C   LIG d   1      -6.575  75.060 117.507  0.00  0.00     0.091 C 
ENDROOT
BRANCH   1   7
ATOM      7  O   LIG d   1      -7.748  73.075 118.338  0.00  0.00    -0.368 OA
BRANCH   7   8
ATOM      8  C   LIG d   1      -7.934  72.651 116.965  0.00  0.00     0.119 C 
BRANCH   8   9
ATOM      9  C   LIG d   1      -9.275  71.896 116.891  0.00  0.00     0.028 C 
ATOM     10  C   LIG d   1      -9.122  70.397 117.198  0.00  0.00     0.006 C 
ENDBRANCH   8   9
BRANCH   8  11
ATOM     11  C   LIG d   1      -6.870  71.631 116.548  0.00  0.00     0.028 C 
ATOM     12  C   LIG d   1      -6.335  71.874 115.128  0.00  0.00     0.006 C 
ENDBRANCH   8  11
ENDBRANCH   7   8
ENDBRANCH   1   7
BRANCH   6  13
ATOM     13  N   LIG d   1      -5.208  74.640 117.911  0.00  0.00    -0.311 N 
ATOM     14  C   LIG d   1      -4.238  74.367 117.040  0.00  0.00     0.210 C 
ATOM     15  C   LIG d   1      -2.909  73.932 117.667  0.00  0.00     0.109 C 
ATOM     16  O   LIG d   1      -4.342  74.475 115.809  0.00  0.00    -0.276 OA
ATOM     17  H   LIG d   1      -5.027  74.557 118.892  0.00  0.00     0.149 HD
ENDBRANCH   6  13
BRANCH   5  18
ATOM     18  N   LIG d   1      -5.859  77.160 116.311  0.00  0.00     0.381 N 
ATOM     19  H   LIG d   1      -5.930  76.596 115.488  0.00  0.00    -0.090 HD
ATOM     20  H   LIG d   1      -4.902  77.152 116.618  0.00  0.00    -0.090 HD
ATOM     21  H   LIG d   1      -6.143  78.093 116.109  0.00  0.00    -0.090 HD
ENDBRANCH   5  18
BRANCH   3  22
ATOM     22  C   LIG d   1     -10.273  77.018 118.165  0.00  0.00     0.382 C 
ATOM     23  O   LIG d   1     -11.366  76.419 118.023  0.00  0.00    -0.241 OA
ATOM     24  O   LIG d   1     -10.271  78.223 118.481  0.00  0.00    -0.241 OA
ENDBRANCH   3  22
TORSDOF 7
ENDMDL
MODEL 3
REMARK VINA RESULT:      -5.7      3.338      5.780
REMARK  7 active torsions:
REMARK  status: ('A' for Active; 'I' for Inactive)
REMARK    1  A    between atoms: C_2  and  C_3 
REMARK    2  A    between atoms: C_3  and  O_6 
REMARK    3  A    between atoms: C_3  and  C_4 
REMARK    4  A    between atoms: C_7  and  O_6 
REMARK    5  A    between atoms: C_9  and  C_10 
REMARK    6  A    between atoms: N_15  and  C_14 
REMARK    7  A    between atoms: N_20  and  C_19 
REMARK       I    between atoms: C_22  and  N_20 
ROOT
ATOM      1  C   LIG d   1       3.564  85.346 112.310  0.00  0.00     0.161 C 
ATOM      2  C   LIG d   1       4.149  86.618 112.194  0.00  0.00     0.016 C 
ATOM      3  C   LIG d   1       4.336  87.492 113.290  0.00  0.00     0.038 C 
ATOM      4  C   LIG d   1       4.088  87.088 114.610  0.00  0.00     0.028 C 
ATOM      5  C   LIG d   1       3.026  85.999 114.721  0.00  0.00    -0.047 C 
ATOM      6  C   LIG d   1       3.389  84.845 113.759  0.00  0.00     0.091 C 
ENDROOT
BRANCH   1   7
ATOM      7  O   LIG d   1       4.317  84.390 111.537  0.00  0.00    -0.368 OA
BRANCH   7   8
ATOM      8  C   LIG d   1       3.545  83.523 110.671  0.00  0.00     0.119 C 
BRANCH   8   9
ATOM      9  C   LIG d   1       4.471  83.070 109.525  0.00  0.00     0.028 C 
ATOM     10  C   LIG d   1       4.432  81.548 109.305  0.00  0.00     0.006 C 
ENDBRANCH   8   9
BRANCH   8  11
ATOM     11  C   LIG d   1       2.404  84.285 109.992  0.00  0.00     0.028 C 
ATOM     12  C   LIG d   1       1.087  83.493 109.970  0.00  0.00     0.006 C 
ENDBRANCH   8  11
ENDBRANCH   7   8
ENDBRANCH   1   7
BRANCH   6  13
ATOM     13  N   LIG d   1       2.358  83.775 113.743  0.00  0.00    -0.311 N 
ATOM     14  C   LIG d   1       2.586  82.530 114.158  0.00  0.00     0.210 C 
ATOM     15  C   LIG d   1       1.392  81.579 114.037  0.00  0.00     0.109 C 
ATOM     16  O   LIG d   1       3.655  82.132 114.645  0.00  0.00    -0.276 OA
ATOM     17  H   LIG d   1       1.452  84.019 113.393  0.00  0.00     0.149 HD
ENDBRANCH   6  13
BRANCH   5  18
ATOM     18  N   LIG d   1       2.966  85.577 116.134  0.00  0.00     0.381 N 
ATOM     19  H   LIG d   1       2.086  85.139 116.319  0.00  0.00    -0.090 HD
ATOM     20  H   LIG d   1       3.044  86.390 116.719  0.00  0.00    -0.090 HD
ATOM     21  H   LIG d   1       3.709  84.944 116.332  0.00  0.00    -0.090 HD
ENDBRANCH   5  18
BRANCH   3  22
ATOM     22  C   LIG d   1       4.740  88.799 113.066  0.00  0.00     0.382 C 
ATOM     23  O   LIG d   1       3.917  89.739 113.185  0.00  0.00    -0.241 OA
ATOM     24  O   LIG d   1       5.905  89.047 112.702  0.00  0.00    -0.241 OA
ENDBRANCH   3  22
TORSDOF 7
ENDMDL
MODEL 4
REMARK VINA RESULT:      -5.6      1.941      4.843
REMARK  7 active torsions:
REMARK  status: ('A' for Active; 'I' for Inactive)
REMARK    1  A    between atoms: C_2  and  C_3 
REMARK    2  A    between atoms: C_3  and  O_6 
REMARK    3  A    between atoms: C_3  and  C_4 
REMARK    4  A    between atoms: C_7  and  O_6 
REMARK    5  A    between atoms: C_9  and  C_10 
REMARK    6  A    between atoms: N_15  and  C_14 
REMARK    7  A    between atoms: N_20  and  C_19 
REMARK       I    between atoms: C_22  and  N_20 
ROOT
ATOM      1  C   LIG d   1       0.656  82.937 112.080  0.00  0.00     0.161 C 
ATOM      2  C   LIG d   1      -0.571  82.545 112.641  0.00  0.00     0.016 C 
ATOM      3  C   LIG d   1      -1.157  81.277 112.422  0.00  0.00     0.038 C 
ATOM      4  C   LIG d   1      -0.478  80.254 111.744  0.00  0.00     0.028 C 
ATOM      5  C   LIG d   1       0.542  80.768 110.734  0.00  0.00    -0.047 C 
ATOM      6  C   LIG d   1       1.464  81.795 111.430  0.00  0.00     0.091 C 
ENDROOT
BRANCH   1   7
ATOM      7  O   LIG d   1       1.453  83.613 113.073  0.00  0.00    -0.368 OA
BRANCH   7   8
ATOM      8  C   LIG d   1       1.907  84.945 112.727  0.00  0.00     0.119 C 
BRANCH   8   9
ATOM      9  C   LIG d   1       3.446  84.942 112.796  0.00  0.00     0.028 C 
ATOM     10  C   LIG d   1       4.091  85.550 111.540  0.00  0.00     0.006 C 
ENDBRANCH   8   9
BRANCH   8  11
ATOM     11  C   LIG d   1       1.456  85.974 113.768  0.00  0.00     0.028 C 
ATOM     12  C   LIG d   1       0.635  85.349 114.907  0.00  0.00     0.006 C 
ENDBRANCH   8  11
ENDBRANCH   7   8
ENDBRANCH   1   7
BRANCH   6  13
ATOM     13  N   LIG d   1       2.438  82.410 110.490  0.00  0.00    -0.311 N 
ATOM     14  C   LIG d   1       3.673  81.948 110.307  0.00  0.00     0.210 C 
ATOM     15  C   LIG d   1       4.520  82.742 109.308  0.00  0.00     0.109 C 
ATOM     16  O   LIG d   1       4.138  80.936 110.854  0.00  0.00    -0.276 OA
ATOM     17  H   LIG d   1       2.133  83.218 109.982  0.00  0.00     0.149 HD
ENDBRANCH   6  13
BRANCH   5  18
ATOM     18  N   LIG d   1       1.271  79.601 110.203  0.00  0.00     0.381 N 
ATOM     19  H   LIG d   1       2.256  79.780 110.222  0.00  0.00    -0.090 HD
ATOM     20  H   LIG d   1       0.996  79.453 109.248  0.00  0.00    -0.090 HD
ATOM     21  H   LIG d   1       1.063  78.793 110.746  0.00  0.00    -0.090 HD
ENDBRANCH   5  18
BRANCH   3  22
ATOM     22  C   LIG d   1      -2.454  81.037 112.849  0.00  0.00     0.382 C 
ATOM     23  O   LIG d   1      -2.679  80.135 113.691  0.00  0.00    -0.241 OA
ATOM     24  O   LIG d   1      -3.406  81.680 112.369  0.00  0.00    -0.241 OA
ENDBRANCH   3  22
TORSDOF 7
ENDMDL
MODEL 5
REMARK VINA RESULT:      -5.6      1.670      2.143
REMARK  7 active torsions:
REMARK  status: ('A' for Active; 'I' for Inactive)
REMARK    1  A    between atoms: C_2  and  C_3 
REMARK    2  A    between atoms: C_3  and  O_6 
REMARK    3  A    between atoms: C_3  and  C_4 
REMARK    4  A    between atoms: C_7  and  O_6 
REMARK    5  A    between atoms: C_9  and  C_10 
REMARK    6  A    between atoms: N_15  and  C_14 
REMARK    7  A    between atoms: N_20  and  C_19 
REMARK       I    between atoms: C_22  and  N_20 
ROOT
ATOM      1  C   LIG d   1       1.018  82.573 112.262  0.00  0.00     0.161 C 
ATOM      2  C   LIG d   1       2.116  83.099 111.562  0.00  0.00     0.016 C 
ATOM      3  C   LIG d   1       2.652  82.506 110.395  0.00  0.00     0.038 C 
ATOM      4  C   LIG d   1       2.027  81.422 109.761  0.00  0.00     0.028 C 
ATOM      5  C   LIG d   1       1.212  80.551 110.712  0.00  0.00    -0.047 C 
ATOM      6  C   LIG d   1       0.255  81.454 111.523  0.00  0.00     0.091 C 
ENDROOT
BRANCH   1   7
ATOM      7  O   LIG d   1       0.117  83.636 112.629  0.00  0.00    -0.368 OA
BRANCH   7   8
ATOM      8  C   LIG d   1       0.579  84.984 112.363  0.00  0.00     0.119 C 
BRANCH   8   9
ATOM      9  C   LIG d   1       0.672  85.716 113.716  0.00  0.00     0.028 C 
ATOM     10  C   LIG d   1      -0.430  85.279 114.697  0.00  0.00     0.006 C 
ENDBRANCH   8   9
BRANCH   8  11
ATOM     11  C   LIG d   1      -0.446  85.774 111.544  0.00  0.00     0.028 C 
ATOM     12  C   LIG d   1      -0.370  85.467 110.040  0.00  0.00     0.006 C 
ENDBRANCH   8  11
ENDBRANCH   7   8
ENDBRANCH   1   7
BRANCH   6  13
ATOM     13  N   LIG d   1      -0.520  80.692 112.537  0.00  0.00    -0.311 N 
ATOM     14  C   LIG d   1      -1.798  80.939 112.820  0.00  0.00     0.210 C 
ATOM     15  C   LIG d   1      -2.401  80.050 113.912  0.00  0.00     0.109 C 
ATOM     16  O   LIG d   1      -2.498  81.788 112.249  0.00  0.00    -0.276 OA
ATOM     17  H   LIG d   1      -0.038  79.964 113.026  0.00  0.00     0.149 HD
ENDBRANCH   6  13
BRANCH   5  18
ATOM     18  N   LIG d   1       0.506  79.543 109.898  0.00  0.00     0.381 N 
ATOM     19  H   LIG d   1      -0.482  79.648 110.012  0.00  0.00    -0.090 HD
ATOM     20  H   LIG d   1       0.765  78.627 110.219  0.00  0.00    -0.090 HD
ATOM     21  H   LIG d   1       0.750  79.648 108.938  0.00  0.00    -0.090 HD
ENDBRANCH   5  18
BRANCH   3  22
ATOM     22  C   LIG d   1       3.849  82.973 109.875  0.00  0.00     0.382 C 
ATOM     23  O   LIG d   1       4.123  84.196 109.934  0.00  0.00    -0.241 OA
ATOM     24  O   LIG d   1       4.637  82.195 109.306  0.00  0.00    -0.241 OA
ENDBRANCH   3  22
TORSDOF 7
ENDMDL
MODEL 6
REMARK VINA RESULT:      -5.6      3.797      6.300
REMARK  7 active torsions:
REMARK  status: ('A' for Active; 'I' for Inactive)
REMARK    1  A    between atoms: C_2  and  C_3 
REMARK    2  A    between atoms: C_3  and  O_6 
REMARK    3  A    between atoms: C_3  and  C_4 
REMARK    4  A    between atoms: C_7  and  O_6 
REMARK    5  A    between atoms: C_9  and  C_10 
REMARK    6  A    between atoms: N_15  and  C_14 
REMARK    7  A    between atoms: N_20  and  C_19 
REMARK       I    between atoms: C_22  and  N_20 
ROOT
ATOM      1  C   LIG d   1       1.011  85.464 112.807  0.00  0.00     0.161 C 
ATOM      2  C   LIG d   1      -0.126  84.696 113.106  0.00  0.00     0.016 C 
ATOM      3  C   LIG d   1      -0.651  84.558 114.412  0.00  0.00     0.038 C 
ATOM      4  C   LIG d   1      -0.158  85.307 115.491  0.00  0.00     0.028 C 
ATOM      5  C   LIG d   1       1.305  85.707 115.333  0.00  0.00    -0.047 C 
ATOM      6  C   LIG d   1       1.495  86.377 113.953  0.00  0.00     0.091 C 
ENDROOT
BRANCH   1   7
ATOM      7  O   LIG d   1       0.777  86.239 111.614  0.00  0.00    -0.368 OA
BRANCH   7   8
ATOM      8  C   LIG d   1       1.624  85.935 110.479  0.00  0.00     0.119 C 
BRANCH   8   9
ATOM      9  C   LIG d   1       0.704  85.544 109.306  0.00  0.00     0.028 C 
ATOM     10  C   LIG d   1      -0.787  85.687 109.657  0.00  0.00     0.006 C 
ENDBRANCH   8   9
BRANCH   8  11
ATOM     11  C   LIG d   1       2.489  84.699 110.745  0.00  0.00     0.028 C 
ATOM     12  C   LIG d   1       3.994  84.988 110.628  0.00  0.00     0.006 C 
ENDBRANCH   8  11
ENDBRANCH   7   8
ENDBRANCH   1   7
BRANCH   6  13
ATOM     13  N   LIG d   1       2.915  86.724 113.682  0.00  0.00    -0.311 N 
ATOM     14  C   LIG d   1       3.299  87.893 113.174  0.00  0.00     0.210 C 
ATOM     15  C   LIG d   1       4.809  88.038 112.955  0.00  0.00     0.109 C 
ATOM     16  O   LIG d   1       2.537  88.837 112.914  0.00  0.00    -0.276 OA
ATOM     17  H   LIG d   1       3.603  86.028 113.893  0.00  0.00     0.149 HD
ENDBRANCH   6  13
BRANCH   5  18
ATOM     18  N   LIG d   1       1.647  86.597 116.459  0.00  0.00     0.381 N 
ATOM     19  H   LIG d   1       1.193  86.279 117.292  0.00  0.00    -0.090 HD
ATOM     20  H   LIG d   1       1.317  87.523 116.254  0.00  0.00    -0.090 HD
ATOM     21  H   LIG d   1       2.634  86.610 116.595  0.00  0.00    -0.090 HD
ENDBRANCH   5  18
BRANCH   3  22
ATOM     22  C   LIG d   1      -1.654  83.633 114.655  0.00  0.00     0.382 C 
ATOM     23  O   LIG d   1      -2.107  82.937 113.715  0.00  0.00    -0.241 OA
ATOM     24  O   LIG d   1      -2.144  83.517 115.795  0.00  0.00    -0.241 OA
ENDBRANCH   3  22
TORSDOF 7
ENDMDL
MODEL 7
REMARK VINA RESULT:      -5.4      3.622      6.251
REMARK  7 active torsions:
REMARK  status: ('A' for Active; 'I' for Inactive)
REMARK    1  A    between atoms: C_2  and  C_3 
REMARK    2  A    between atoms: C_3  and  O_6 
REMARK    3  A    between atoms: C_3  and  C_4 
REMARK    4  A    between atoms: C_7  and  O_6 
REMARK    5  A    between atoms: C_9  and  C_10 
REMARK    6  A    between atoms: N_15  and  C_14 
REMARK    7  A    between atoms: N_20  and  C_19 
REMARK       I    between atoms: C_22  and  N_20 
ROOT
ATOM      1  C   LIG d   1       4.199  85.317 112.653  0.00  0.00     0.161 C 
ATOM      2  C   LIG d   1       4.032  86.550 113.305  0.00  0.00     0.016 C 
ATOM      3  C   LIG d   1       3.060  87.505 112.926  0.00  0.00     0.038 C 
ATOM      4  C   LIG d   1       2.084  87.226 111.959  0.00  0.00     0.028 C 
ATOM      5  C   LIG d   1       2.530  86.194 110.928  0.00  0.00    -0.047 C 
ATOM      6  C   LIG d   1       3.071  84.948 111.668  0.00  0.00     0.091 C 
ENDROOT
BRANCH   1   7
ATOM      7  O   LIG d   1       4.376  84.269 113.627  0.00  0.00    -0.368 OA
BRANCH   7   8
ATOM      8  C   LIG d   1       4.037  84.607 114.995  0.00  0.00     0.119 C 
BRANCH   8   9
ATOM      9  C   LIG d   1       5.133  84.016 115.903  0.00  0.00     0.028 C 
ATOM     10  C   LIG d   1       6.068  85.097 116.472  0.00  0.00     0.006 C 
ENDBRANCH   8   9
BRANCH   8  11
ATOM     11  C   LIG d   1       2.738  83.924 115.432  0.00  0.00     0.028 C 
ATOM     12  C   LIG d   1       1.587  84.918 115.653  0.00  0.00     0.006 C 
ENDBRANCH   8  11
ENDBRANCH   7   8
ENDBRANCH   1   7
BRANCH   6  13
ATOM     13  N   LIG d   1       3.606  83.923 110.734  0.00  0.00    -0.311 N 
ATOM     14  C   LIG d   1       2.887  82.899 110.279  0.00  0.00     0.210 C 
ATOM     15  C   LIG d   1       3.637  81.947 109.342  0.00  0.00     0.109 C 
ATOM     16  O   LIG d   1       1.689  82.706 110.537  0.00  0.00    -0.276 OA
ATOM     17  H   LIG d   1       4.561  84.021 110.448  0.00  0.00     0.149 HD
ENDBRANCH   6  13
BRANCH   5  18
ATOM     18  N   LIG d   1       1.371  85.896 110.065  0.00  0.00     0.381 N 
ATOM     19  H   LIG d   1       0.647  85.467 110.607  0.00  0.00    -0.090 HD
ATOM     20  H   LIG d   1       1.656  85.249 109.351  0.00  0.00    -0.090 HD
ATOM     21  H   LIG d   1       1.032  86.735 109.648  0.00  0.00    -0.090 HD
ENDBRANCH   5  18
BRANCH   3  22
ATOM     22  C   LIG d   1       3.085  88.771 113.491  0.00  0.00     0.382 C 
ATOM     23  O   LIG d   1       2.222  89.095 114.342  0.00  0.00    -0.241 OA
ATOM     24  O   LIG d   1       3.932  89.609 113.126  0.00  0.00    -0.241 OA
ENDBRANCH   3  22
TORSDOF 7
ENDMDL
MODEL 8
REMARK VINA RESULT:      -5.3      2.367      4.725
REMARK  7 active torsions:
REMARK  status: ('A' for Active; 'I' for Inactive)
REMARK    1  A    between atoms: C_2  and  C_3 
REMARK    2  A    between atoms: C_3  and  O_6 
REMARK    3  A    between atoms: C_3  and  C_4 
REMARK    4  A    between atoms: C_7  and  O_6 
REMARK    5  A    between atoms: C_9  and  C_10 
REMARK    6  A    between atoms: N_15  and  C_14 
REMARK    7  A    between atoms: N_20  and  C_19 
REMARK       I    between atoms: C_22  and  N_20 
ROOT
ATOM      1  C   LIG d   1       1.162  85.100 111.334  0.00  0.00     0.161 C 
ATOM      2  C   LIG d   1       2.029  86.199 111.455  0.00  0.00     0.016 C 
ATOM      3  C   LIG d   1       2.435  86.736 112.699  0.00  0.00     0.038 C 
ATOM      4  C   LIG d   1       2.119  86.112 113.915  0.00  0.00     0.028 C 
ATOM      5  C   LIG d   1       0.832  85.296 113.860  0.00  0.00    -0.047 C 
ATOM      6  C   LIG d   1       0.896  84.338 112.649  0.00  0.00     0.091 C 
ENDROOT
BRANCH   1   7
ATOM      7  O   LIG d   1       1.655  84.198 110.323  0.00  0.00    -0.368 OA
BRANCH   7   8
ATOM      8  C   LIG d   1       2.715  83.299 110.733  0.00  0.00     0.119 C 
BRANCH   8   9
ATOM      9  C   LIG d   1       4.013  83.774 110.052  0.00  0.00     0.028 C 
ATOM     10  C   LIG d   1       4.733  82.639 109.305  0.00  0.00     0.006 C 
ENDBRANCH   8   9
BRANCH   8  11
ATOM     11  C   LIG d   1       2.476  81.881 110.207  0.00  0.00     0.028 C 
ATOM     12  C   LIG d   1       1.049  81.675 109.675  0.00  0.00     0.006 C 
ENDBRANCH   8  11
ENDBRANCH   7   8
ENDBRANCH   1   7
BRANCH   6  13
ATOM     13  N   LIG d   1      -0.359  83.562 112.473  0.00  0.00    -0.311 N 
ATOM     14  C   LIG d   1      -0.543  82.341 112.972  0.00  0.00     0.210 C 
ATOM     15  C   LIG d   1      -1.903  81.711 112.657  0.00  0.00     0.109 C 
ATOM     16  O   LIG d   1       0.280  81.733 113.674  0.00  0.00    -0.276 OA
ATOM     17  H   LIG d   1      -1.091  83.993 111.943  0.00  0.00     0.149 HD
ENDBRANCH   6  13
BRANCH   5  18
ATOM     18  N   LIG d   1       0.696  84.591 115.149  0.00  0.00     0.381 N 
ATOM     19  H   LIG d   1       0.311  85.209 115.834  0.00  0.00    -0.090 HD
ATOM     20  H   LIG d   1       1.607  84.303 115.459  0.00  0.00    -0.090 HD
ATOM     21  H   LIG d   1       0.107  83.794 115.041  0.00  0.00    -0.090 HD
ENDBRANCH   5  18
BRANCH   3  22
ATOM     22  C   LIG d   1       3.133  87.934 112.735  0.00  0.00     0.382 C 
ATOM     23  O   LIG d   1       4.357  87.955 112.460  0.00  0.00    -0.241 OA
ATOM     24  O   LIG d   1       2.564  88.986 113.082  0.00  0.00    -0.241 OA
ENDBRANCH   3  22
TORSDOF 7
ENDMDL
MODEL 9
REMARK VINA RESULT:      -5.3      2.912      4.906
REMARK  7 active torsions:
REMARK  status: ('A' for Active; 'I' for Inactive)
REMARK    1  A    between atoms: C_2  and  C_3 
REMARK    2  A    between atoms: C_3  and  O_6 
REMARK    3  A    between atoms: C_3  and  C_4 
REMARK    4  A    between atoms: C_7  and  O_6 
REMARK    5  A    between atoms: C_9  and  C_10 
REMARK    6  A    between atoms: N_15  and  C_14 
REMARK    7  A    between atoms: N_20  and  C_19 
REMARK       I    between atoms: C_22  and  N_20 
ROOT
ATOM      1  C   LIG d   1      -0.236  84.174 113.622  0.00  0.00     0.161 C 
ATOM      2  C   LIG d   1       0.451  85.346 113.266  0.00  0.00     0.016 C 
ATOM      3  C   LIG d   1       0.969  85.583 111.972  0.00  0.00     0.038 C 
ATOM      4  C   LIG d   1       0.702  84.721 110.898  0.00  0.00     0.028 C 
ATOM      5  C   LIG d   1       0.444  83.280 111.326  0.00  0.00    -0.047 C 
ATOM      6  C   LIG d   1      -0.634  83.272 112.434  0.00  0.00     0.091 C 
ENDROOT
BRANCH   1   7
ATOM      7  O   LIG d   1      -1.397  84.507 114.409  0.00  0.00    -0.368 OA
BRANCH   7   8
ATOM      8  C   LIG d   1      -1.288  84.276 115.835  0.00  0.00     0.119 C 
BRANCH   8   9
ATOM      9  C   LIG d   1       0.202  84.046 116.154  0.00  0.00     0.028 C 
ATOM     10  C   LIG d   1       0.635  84.732 117.461  0.00  0.00     0.006 C 
ENDBRANCH   8   9
BRANCH   8  11
ATOM     11  C   LIG d   1      -1.995  82.981 116.245  0.00  0.00     0.028 C 
ATOM     12  C   LIG d   1      -3.496  82.991 115.915  0.00  0.00     0.006 C 
ENDBRANCH   8  11
ENDBRANCH   7   8
ENDBRANCH   1   7
BRANCH   6  13
ATOM     13  N   LIG d   1      -0.886  81.908 112.970  0.00  0.00    -0.311 N 
ATOM     14  C   LIG d   1      -2.070  81.303 112.905  0.00  0.00     0.210 C 
ATOM     15  C   LIG d   1      -2.118  79.907 113.535  0.00  0.00     0.109 C 
ATOM     16  O   LIG d   1      -3.077  81.775 112.357  0.00  0.00    -0.276 OA
ATOM     17  H   LIG d   1      -0.115  81.439 113.404  0.00  0.00     0.149 HD
ENDBRANCH   6  13
BRANCH   5  18
ATOM     18  N   LIG d   1       0.044  82.523 110.125  0.00  0.00     0.381 N 
ATOM     19  H   LIG d   1      -0.009  81.548 110.342  0.00  0.00    -0.090 HD
ATOM     20  H   LIG d   1       0.742  82.650 109.414  0.00  0.00    -0.090 HD
ATOM     21  H   LIG d   1      -0.839  82.846 109.797  0.00  0.00    -0.090 HD
ENDBRANCH   5  18
BRANCH   3  22
ATOM     22  C   LIG d   1       1.798  86.672 111.752  0.00  0.00     0.382 C 
ATOM     23  O   LIG d   1       1.868  87.589 112.606  0.00  0.00    -0.241 OA
ATOM     24  O   LIG d   1       2.443  86.771 110.691  0.00  0.00    -0.241 OA
ENDBRANCH   3  22
TORSDOF 7
ENDMDL
