MODEL 1
REMARK VINA RESULT:      -6.2      0.000      0.000
REMARK  7 active torsions:
REMARK  status: ('A' for Active; 'I' for Inactive)
REMARK    1  A    between atoms: C_2  and  C_3 
REMARK    2  A    between atoms: C_3  and  O_6 
REMARK    3  A    between atoms: C_3  and  C_4 
REMARK    4  A    between atoms: C_7  and  O_6 
REMARK    5  A    between atoms: C_9  and  C_10 
REMARK    6  A    between atoms: N_15  and  C_14 
REMARK    7  A    between atoms: N_20  and  C_19 
REMARK       I    between atoms: C_22  and  N_20 
ROOT
ATOM      1  C   LIG d   1       0.276  83.346 112.014  0.00  0.00     0.161 C 
ATOM      2  C   LIG d   1      -0.928  82.986 112.642  0.00  0.00     0.016 C 
ATOM      3  C   LIG d   1      -1.462  81.677 112.610  0.00  0.00     0.038 C 
ATOM      4  C   LIG d   1      -0.746  80.598 112.071  0.00  0.00     0.028 C 
ATOM      5  C   LIG d   1       0.241  81.008 110.983  0.00  0.00    -0.047 C 
ATOM      6  C   LIG d   1       1.126  82.158 111.516  0.00  0.00     0.091 C 
ENDROOT
BRANCH   1   7
ATOM      7  O   LIG d   1       1.053  84.185 112.892  0.00  0.00    -0.368 OA
BRANCH   7   8
ATOM      8  C   LIG d   1       1.138  85.584 112.525  0.00  0.00     0.119 C 
BRANCH   8   9
ATOM      9  C   LIG d   1       0.331  85.772 111.226  0.00  0.00     0.028 C 
ATOM     10  C   LIG d   1       1.148  86.468 110.124  0.00  0.00     0.006 C 
ENDBRANCH   8   9
BRANCH   8  11
ATOM     11  C   LIG d   1       2.575  85.981 112.172  0.00  0.00     0.028 C 
ATOM     12  C   LIG d   1       3.624  85.081 112.844  0.00  0.00     0.006 C 
ENDBRANCH   8  11
ENDBRANCH   7   8
ENDBRANCH   1   7
BRANCH   6  13
ATOM     13  N   LIG d   1       2.063  82.677 110.485  0.00  0.00    -0.311 N 
ATOM     14  C   LIG d   1       3.353  82.350 110.437  0.00  0.00     0.210 C 
ATOM     15  C   LIG d   1       4.146  83.013 109.306  0.00  0.00     0.109 C 
ATOM     16  O   LIG d   1       3.909  81.550 111.204  0.00  0.00    -0.276 OA
ATOM     17  H   LIG d   1       1.688  83.308 109.805  0.00  0.00     0.149 HD
ENDBRANCH   6  13
BRANCH   5  18
ATOM     18  N   LIG d   1       1.014  79.810 110.607  0.00  0.00     0.381 N 
ATOM     19  H   LIG d   1       1.375  79.368 111.429  0.00  0.00    -0.090 HD
ATOM     20  H   LIG d   1       1.791  80.091 110.034  0.00  0.00    -0.090 HD
ATOM     21  H   LIG d   1       0.435  79.173 110.106  0.00  0.00    -0.090 HD
ENDBRANCH   5  18
BRANCH   3  22
ATOM     22  C   LIG d   1      -2.743  81.445 113.086  0.00  0.00     0.382 C 
ATOM     23  O   LIG d   1      -2.925  80.639 114.031  0.00  0.00    -0.241 OA
ATOM     24  O   LIG d   1      -3.724  81.998 112.554  0.00  0.00    -0.241 OA
ENDBRANCH   3  22
TORSDOF 7
ENDMDL
MODEL 2
REMARK VINA RESULT:      -5.8      2.268      5.113
REMARK  7 active torsions:
REMARK  status: ('A' for Active; 'I' for Inactive)
REMARK    1  A    between atoms: C_2  and  C_3 
REMARK    2  A    between atoms: C_3  and  O_6 
REMARK    3  A    between atoms: C_3  and  C_4 
REMARK    4  A    between atoms: C_7  and  O_6 
REMARK    5  A    between atoms: C_9  and  C_10 
REMARK    6  A    between atoms: N_15  and  C_14 
REMARK    7  A    between atoms: N_20  and  C_19 
REMARK       I    between atoms: C_22  and  N_20 
ROOT
ATOM      1  C   LIG d   1      -0.266  83.289 111.021  0.00  0.00     0.161 C 
ATOM      2  C   LIG d   1      -0.166  84.674 110.808  0.00  0.00     0.016 C 
ATOM      3  C   LIG d   1       0.012  85.611 111.851  0.00  0.00     0.038 C 
ATOM      4  C   LIG d   1       0.254  85.212 113.174  0.00  0.00     0.028 C 
ATOM      5  C   LIG d   1      -0.340  83.849 113.513  0.00  0.00    -0.047 C 
ATOM      6  C   LIG d   1       0.108  82.826 112.445  0.00  0.00     0.091 C 
ENDROOT
BRANCH   1   7
ATOM      7  O   LIG d   1       0.524  82.585 110.042  0.00  0.00    -0.368 OA
BRANCH   7   8
ATOM      8  C   LIG d   1       1.938  82.463 110.332  0.00  0.00     0.119 C 
BRANCH   8   9
ATOM      9  C   LIG d   1       2.697  83.326 109.306  0.00  0.00     0.028 C 
ATOM     10  C   LIG d   1       3.446  84.498 109.963  0.00  0.00     0.006 C 
ENDBRANCH   8   9
BRANCH   8  11
ATOM     11  C   LIG d   1       2.432  81.032 110.103  0.00  0.00     0.028 C 
ATOM     12  C   LIG d   1       1.288  80.044 109.822  0.00  0.00     0.006 C 
ENDBRANCH   8  11
ENDBRANCH   7   8
ENDBRANCH   1   7
BRANCH   6  13
ATOM     13  N   LIG d   1      -0.498  81.485 112.655  0.00  0.00    -0.311 N 
ATOM     14  C   LIG d   1      -1.813  81.276 112.714  0.00  0.00     0.210 C 
ATOM     15  C   LIG d   1      -2.225  79.820 112.957  0.00  0.00     0.109 C 
ATOM     16  O   LIG d   1      -2.676  82.151 112.555  0.00  0.00    -0.276 OA
ATOM     17  H   LIG d   1       0.129  80.712 112.762  0.00  0.00     0.149 HD
ENDBRANCH   6  13
BRANCH   5  18
ATOM     18  N   LIG d   1       0.104  83.496 114.875  0.00  0.00     0.381 N 
ATOM     19  H   LIG d   1      -0.372  84.065 115.545  0.00  0.00    -0.090 HD
ATOM     20  H   LIG d   1       1.090  83.675 114.952  0.00  0.00    -0.090 HD
ATOM     21  H   LIG d   1      -0.081  82.533 115.055  0.00  0.00    -0.090 HD
ENDBRANCH   5  18
BRANCH   3  22
ATOM     22  C   LIG d   1      -0.092  86.968 111.582  0.00  0.00     0.382 C 
ATOM     23  O   LIG d   1       0.945  87.661 111.447  0.00  0.00    -0.241 OA
ATOM     24  O   LIG d   1      -1.209  87.515 111.515  0.00  0.00    -0.241 OA
ENDBRANCH   3  22
TORSDOF 7
ENDMDL
MODEL 3
REMARK VINA RESULT:      -5.8      1.610      4.884
REMARK  7 active torsions:
REMARK  status: ('A' for Active; 'I' for Inactive)
REMARK    1  A    between atoms: C_2  and  C_3 
REMARK    2  A    between atoms: C_3  and  O_6 
REMARK    3  A    between atoms: C_3  and  C_4 
REMARK    4  A    between atoms: C_7  and  O_6 
REMARK    5  A    between atoms: C_9  and  C_10 
REMARK    6  A    between atoms: N_15  and  C_14 
REMARK    7  A    between atoms: N_20  and  C_19 
REMARK       I    between atoms: C_22  and  N_20 
ROOT
ATOM      1  C   LIG d   1       1.752  83.419 112.095  0.00  0.00     0.161 C 
ATOM      2  C   LIG d   1       2.799  83.179 111.190  0.00  0.00     0.016 C 
ATOM      3  C   LIG d   1       2.847  82.054 110.335  0.00  0.00     0.038 C 
ATOM      4  C   LIG d   1       1.768  81.164 110.220  0.00  0.00     0.028 C 
ATOM      5  C   LIG d   1       0.910  81.087 111.478  0.00  0.00    -0.047 C 
ATOM      6  C   LIG d   1       0.514  82.518 111.904  0.00  0.00     0.091 C 
ENDROOT
BRANCH   1   7
ATOM      7  O   LIG d   1       1.374  84.809 112.047  0.00  0.00    -0.368 OA
BRANCH   7   8
ATOM      8  C   LIG d   1       1.926  85.583 110.954  0.00  0.00     0.119 C 
BRANCH   8   9
ATOM      9  C   LIG d   1       2.364  86.945 111.526  0.00  0.00     0.028 C 
ATOM     10  C   LIG d   1       2.369  86.961 113.064  0.00  0.00     0.006 C 
ENDBRANCH   8   9
BRANCH   8  11
ATOM     11  C   LIG d   1       0.858  85.907 109.905  0.00  0.00     0.028 C 
ATOM     12  C   LIG d   1      -0.360  86.632 110.500  0.00  0.00     0.006 C 
ENDBRANCH   8  11
ENDBRANCH   7   8
ENDBRANCH   1   7
BRANCH   6  13
ATOM     13  N   LIG d   1      -0.257  82.539 113.175  0.00  0.00    -0.311 N 
ATOM     14  C   LIG d   1      -1.585  82.449 113.228  0.00  0.00     0.210 C 
ATOM     15  C   LIG d   1      -2.181  82.510 114.638  0.00  0.00     0.109 C 
ATOM     16  O   LIG d   1      -2.323  82.293 112.244  0.00  0.00    -0.276 OA
ATOM     17  H   LIG d   1       0.265  82.632 114.024  0.00  0.00     0.149 HD
ENDBRANCH   6  13
BRANCH   5  18
ATOM     18  N   LIG d   1      -0.252  80.231 111.173  0.00  0.00     0.381 N 
ATOM     19  H   LIG d   1      -0.290  79.468 111.818  0.00  0.00    -0.090 HD
ATOM     20  H   LIG d   1      -0.146  79.857 110.246  0.00  0.00    -0.090 HD
ATOM     21  H   LIG d   1      -1.092  80.765 111.229  0.00  0.00    -0.090 HD
ENDBRANCH   5  18
BRANCH   3  22
ATOM     22  C   LIG d   1       4.001  81.787 109.613  0.00  0.00     0.382 C 
ATOM     23  O   LIG d   1       4.288  80.606 109.305  0.00  0.00    -0.241 OA
ATOM     24  O   LIG d   1       4.780  82.709 109.305  0.00  0.00    -0.241 OA
ENDBRANCH   3  22
TORSDOF 7
ENDMDL
MODEL 4
REMARK VINA RESULT:      -5.6      1.874      5.123
REMARK  7 active torsions:
REMARK  status: ('A' for Active; 'I' for Inactive)
REMARK    1  A    between atoms: C_2  and  C_3 
REMARK    2  A    between atoms: C_3  and  O_6 
REMARK    3  A    between atoms: C_3  and  C_4 
REMARK    4  A    between atoms: C_7  and  O_6 
REMARK    5  A    between atoms: C_9  and  C_10 
REMARK    6  A    between atoms: N_15  and  C_14 
REMARK    7  A    between atoms: N_20  and  C_19 
REMARK       I    between atoms: C_22  and  N_20 
ROOT
ATOM      1  C   LIG d   1       1.223  81.641 112.643  0.00  0.00     0.161 C 
ATOM      2  C   LIG d   1       2.209  82.443 112.044  0.00  0.00     0.016 C 
ATOM      3  C   LIG d   1       2.339  82.602 110.646  0.00  0.00     0.038 C 
ATOM      4  C   LIG d   1       1.390  82.087 109.750  0.00  0.00     0.028 C 
ATOM      5  C   LIG d   1       0.666  80.853 110.277  0.00  0.00    -0.047 C 
ATOM      6  C   LIG d   1       0.111  81.161 111.687  0.00  0.00     0.091 C 
ENDROOT
BRANCH   1   7
ATOM      7  O   LIG d   1       0.649  82.333 113.771  0.00  0.00    -0.368 OA
BRANCH   7   8
ATOM      8  C   LIG d   1      -0.423  83.260 113.471  0.00  0.00     0.119 C 
BRANCH   8   9
ATOM      9  C   LIG d   1       0.132  84.685 113.656  0.00  0.00     0.028 C 
ATOM     10  C   LIG d   1       0.176  85.474 112.336  0.00  0.00     0.006 C 
ENDBRANCH   8   9
BRANCH   8  11
ATOM     11  C   LIG d   1      -1.566  83.136 114.484  0.00  0.00     0.028 C 
ATOM     12  C   LIG d   1      -1.310  82.049 115.540  0.00  0.00     0.006 C 
ENDBRANCH   8  11
ENDBRANCH   7   8
ENDBRANCH   1   7
BRANCH   6  13
ATOM     13  N   LIG d   1      -0.539  79.979 112.311  0.00  0.00    -0.311 N 
ATOM     14  C   LIG d   1      -1.844  79.912 112.569  0.00  0.00     0.210 C 
ATOM     15  C   LIG d   1      -2.305  78.611 113.234  0.00  0.00     0.109 C 
ATOM     16  O   LIG d   1      -2.668  80.793 112.282  0.00  0.00    -0.276 OA
ATOM     17  H   LIG d   1       0.051  79.206 112.548  0.00  0.00     0.149 HD
ENDBRANCH   6  13
BRANCH   5  18
ATOM     18  N   LIG d   1      -0.387  80.504 109.305  0.00  0.00     0.381 N 
ATOM     19  H   LIG d   1       0.012  79.994 108.542  0.00  0.00    -0.090 HD
ATOM     20  H   LIG d   1      -0.789  81.351 108.943  0.00  0.00    -0.090 HD
ATOM     21  H   LIG d   1      -1.092  79.956 109.748  0.00  0.00    -0.090 HD
ENDBRANCH   5  18
BRANCH   3  22
ATOM     22  C   LIG d   1       3.450  83.250 110.128  0.00  0.00     0.382 C 
ATOM     23  O   LIG d   1       3.410  84.485 109.911  0.00  0.00    -0.241 OA
ATOM     24  O   LIG d   1       4.475  82.608 109.833  0.00  0.00    -0.241 OA
ENDBRANCH   3  22
TORSDOF 7
ENDMDL
MODEL 5
REMARK VINA RESULT:      -5.6      9.190     11.130
REMARK  7 active torsions:
REMARK  status: ('A' for Active; 'I' for Inactive)
REMARK    1  A    between atoms: C_2  and  C_3 
REMARK    2  A    between atoms: C_3  and  O_6 
REMARK    3  A    between atoms: C_3  and  C_4 
REMARK    4  A    between atoms: C_7  and  O_6 
REMARK    5  A    between atoms: C_9  and  C_10 
REMARK    6  A    between atoms: N_15  and  C_14 
REMARK    7  A    between atoms: N_20  and  C_19 
REMARK       I    between atoms: C_22  and  N_20 
ROOT
ATOM      1  C   LIG d   1      -4.948  75.503 117.513  0.00  0.00     0.161 C 
ATOM      2  C   LIG d   1      -6.093  76.314 117.569  0.00  0.00     0.016 C 
ATOM      3  C   LIG d   1      -6.082  77.698 117.277  0.00  0.00     0.038 C 
ATOM      4  C   LIG d   1      -4.945  78.337 116.760  0.00  0.00     0.028 C 
ATOM      5  C   LIG d   1      -3.636  77.669 117.167  0.00  0.00    -0.047 C 
ATOM      6  C   LIG d   1      -3.722  76.159 116.844  0.00  0.00     0.091 C 
ENDROOT
BRANCH   1   7
ATOM      7  O   LIG d   1      -5.264  74.255 116.865  0.00  0.00    -0.368 OA
BRANCH   7   8
ATOM      8  C   LIG d   1      -6.307  74.305 115.861  0.00  0.00     0.119 C 
BRANCH   8   9
ATOM      9  C   LIG d   1      -7.065  72.964 115.913  0.00  0.00     0.028 C 
ATOM     10  C   LIG d   1      -6.846  72.218 117.240  0.00  0.00     0.006 C 
ENDBRANCH   8   9
BRANCH   8  11
ATOM     11  C   LIG d   1      -5.718  74.383 114.449  0.00  0.00     0.028 C 
ATOM     12  C   LIG d   1      -5.816  75.790 113.839  0.00  0.00     0.006 C 
ENDBRANCH   8  11
ENDBRANCH   7   8
ENDBRANCH   1   7
BRANCH   6  13
ATOM     13  N   LIG d   1      -2.515  75.415 117.287  0.00  0.00    -0.311 N 
ATOM     14  C   LIG d   1      -1.908  74.492 116.543  0.00  0.00     0.210 C 
ATOM     15  C   LIG d   1      -0.691  73.831 117.198  0.00  0.00     0.109 C 
ATOM     16  O   LIG d   1      -2.243  74.181 115.390  0.00  0.00    -0.276 OA
ATOM     17  H   LIG d   1      -2.157  75.627 118.198  0.00  0.00     0.149 HD
ENDBRANCH   6  13
BRANCH   5  18
ATOM     18  N   LIG d   1      -2.545  78.352 116.448  0.00  0.00     0.381 N 
ATOM     19  H   LIG d   1      -2.725  79.336 116.414  0.00  0.00    -0.090 HD
ATOM     20  H   LIG d   1      -2.508  78.006 115.506  0.00  0.00    -0.090 HD
ATOM     21  H   LIG d   1      -1.676  78.183 116.906  0.00  0.00    -0.090 HD
ENDBRANCH   5  18
BRANCH   3  22
ATOM     22  C   LIG d   1      -7.206  78.465 117.541  0.00  0.00     0.382 C 
ATOM     23  O   LIG d   1      -8.317  77.909 117.716  0.00  0.00    -0.241 OA
ATOM     24  O   LIG d   1      -7.132  79.708 117.563  0.00  0.00    -0.241 OA
ENDBRANCH   3  22
TORSDOF 7
ENDMDL
MODEL 6
REMARK VINA RESULT:      -5.5      2.709      5.714
REMARK  7 active torsions:
REMARK  status: ('A' for Active; 'I' for Inactive)
REMARK    1  A    between atoms: C_2  and  C_3 
REMARK    2  A    between atoms: C_3  and  O_6 
REMARK    3  A    between atoms: C_3  and  C_4 
REMARK    4  A    between atoms: C_7  and  O_6 
REMARK    5  A    between atoms: C_9  and  C_10 
REMARK    6  A    between atoms: N_15  and  C_14 
REMARK    7  A    between atoms: N_20  and  C_19 
REMARK       I    between atoms: C_22  and  N_20 
ROOT
ATOM      1  C   LIG d   1       3.082  84.176 111.963  0.00  0.00     0.161 C 
ATOM      2  C   LIG d   1       3.513  85.436 112.409  0.00  0.00     0.016 C 
ATOM      3  C   LIG d   1       3.032  86.655 111.879  0.00  0.00     0.038 C 
ATOM      4  C   LIG d   1       1.969  86.698 110.965  0.00  0.00     0.028 C 
ATOM      5  C   LIG d   1       1.851  85.438 110.114  0.00  0.00    -0.047 C 
ATOM      6  C   LIG d   1       1.843  84.204 111.044  0.00  0.00     0.091 C 
ENDROOT
BRANCH   1   7
ATOM      7  O   LIG d   1       2.850  83.311 113.092  0.00  0.00    -0.368 OA
BRANCH   7   8
ATOM      8  C   LIG d   1       2.375  83.954 114.300  0.00  0.00     0.119 C 
BRANCH   8   9
ATOM      9  C   LIG d   1       3.093  83.290 115.491  0.00  0.00     0.028 C 
ATOM     10  C   LIG d   1       2.658  81.830 115.699  0.00  0.00     0.006 C 
ENDBRANCH   8   9
BRANCH   8  11
ATOM     11  C   LIG d   1       0.884  83.686 114.525  0.00  0.00     0.028 C 
ATOM     12  C   LIG d   1       0.010  84.924 114.270  0.00  0.00     0.006 C 
ENDBRANCH   8  11
ENDBRANCH   7   8
ENDBRANCH   1   7
BRANCH   6  13
ATOM     13  N   LIG d   1       1.814  82.925 110.288  0.00  0.00    -0.311 N 
ATOM     14  C   LIG d   1       0.745  82.133 110.227  0.00  0.00     0.210 C 
ATOM     15  C   LIG d   1       0.935  80.851 109.410  0.00  0.00     0.109 C 
ATOM     16  O   LIG d   1      -0.354  82.387 110.744  0.00  0.00    -0.276 OA
ATOM     17  H   LIG d   1       2.654  82.657 109.812  0.00  0.00     0.149 HD
ENDBRANCH   6  13
BRANCH   5  18
ATOM     18  N   LIG d   1       0.623  85.560 109.305  0.00  0.00     0.381 N 
ATOM     19  H   LIG d   1      -0.138  85.850 109.886  0.00  0.00    -0.090 HD
ATOM     20  H   LIG d   1       0.399  84.661 108.917  0.00  0.00    -0.090 HD
ATOM     21  H   LIG d   1       0.762  86.221 108.573  0.00  0.00    -0.090 HD
ENDBRANCH   5  18
BRANCH   3  22
ATOM     22  C   LIG d   1       3.644  87.848 112.234  0.00  0.00     0.382 C 
ATOM     23  O   LIG d   1       2.945  88.850 112.519  0.00  0.00    -0.241 OA
ATOM     24  O   LIG d   1       4.886  87.947 112.230  0.00  0.00    -0.241 OA
ENDBRANCH   3  22
TORSDOF 7
ENDMDL
MODEL 7
REMARK VINA RESULT:      -5.5      8.330     11.241
REMARK  7 active torsions:
REMARK  status: ('A' for Active; 'I' for Inactive)
REMARK    1  A    between atoms: C_2  and  C_3 
REMARK    2  A    between atoms: C_3  and  O_6 
REMARK    3  A    between atoms: C_3  and  C_4 
REMARK    4  A    between atoms: C_7  and  O_6 
REMARK    5  A    between atoms: C_9  and  C_10 
REMARK    6  A    between atoms: N_15  and  C_14 
REMARK    7  A    between atoms: N_20  and  C_19 
REMARK       I    between atoms: C_22  and  N_20 
ROOT
ATOM      1  C   LIG d   1      -6.775  77.273 117.369  0.00  0.00     0.161 C 
ATOM      2  C   LIG d   1      -8.032  77.737 117.790  0.00  0.00     0.016 C 
ATOM      3  C   LIG d   1      -8.286  79.081 118.147  0.00  0.00     0.038 C 
ATOM      4  C   LIG d   1      -7.330  80.091 117.962  0.00  0.00     0.028 C 
ATOM      5  C   LIG d   1      -5.893  79.582 118.017  0.00  0.00    -0.047 C 
ATOM      6  C   LIG d   1      -5.748  78.382 117.054  0.00  0.00     0.091 C 
ENDROOT
BRANCH   1   7
ATOM      7  O   LIG d   1      -6.931  76.399 116.234  0.00  0.00    -0.368 OA
BRANCH   7   8
ATOM      8  C   LIG d   1      -6.380  75.067 116.375  0.00  0.00     0.119 C 
BRANCH   8   9
ATOM      9  C   LIG d   1      -5.817  74.651 115.002  0.00  0.00     0.028 C 
ATOM     10  C   LIG d   1      -5.730  75.833 114.021  0.00  0.00     0.006 C 
ENDBRANCH   8   9
BRANCH   8  11
ATOM     11  C   LIG d   1      -7.474  74.042 116.691  0.00  0.00     0.028 C 
ATOM     12  C   LIG d   1      -7.110  72.621 116.231  0.00  0.00     0.006 C 
ENDBRANCH   8  11
ENDBRANCH   7   8
ENDBRANCH   1   7
BRANCH   6  13
ATOM     13  N   LIG d   1      -4.395  77.771 117.110  0.00  0.00    -0.311 N 
ATOM     14  C   LIG d   1      -3.425  78.058 116.244  0.00  0.00     0.210 C 
ATOM     15  C   LIG d   1      -2.112  77.301 116.469  0.00  0.00     0.109 C 
ATOM     16  O   LIG d   1      -3.516  78.893 115.331  0.00  0.00    -0.276 OA
ATOM     17  H   LIG d   1      -4.224  77.106 117.839  0.00  0.00     0.149 HD
ENDBRANCH   6  13
BRANCH   5  18
ATOM     18  N   LIG d   1      -5.007  80.710 117.673  0.00  0.00     0.381 N 
ATOM     19  H   LIG d   1      -5.070  80.903 116.693  0.00  0.00    -0.090 HD
ATOM     20  H   LIG d   1      -4.059  80.455 117.883  0.00  0.00    -0.090 HD
ATOM     21  H   LIG d   1      -5.265  81.519 118.195  0.00  0.00    -0.090 HD
ENDBRANCH   5  18
BRANCH   3  22
ATOM     22  C   LIG d   1      -9.496  79.420 118.734  0.00  0.00     0.382 C 
ATOM     23  O   LIG d   1     -10.223  80.298 118.211  0.00  0.00    -0.241 OA
ATOM     24  O   LIG d   1      -9.849  78.890 119.805  0.00  0.00    -0.241 OA
ENDBRANCH   3  22
TORSDOF 7
ENDMDL
MODEL 8
REMARK VINA RESULT:      -5.4      7.332     10.615
REMARK  7 active torsions:
REMARK  status: ('A' for Active; 'I' for Inactive)
REMARK    1  A    between atoms: C_2  and  C_3 
REMARK    2  A    between atoms: C_3  and  O_6 
REMARK    3  A    between atoms: C_3  and  C_4 
REMARK    4  A    between atoms: C_7  and  O_6 
REMARK    5  A    between atoms: C_9  and  C_10 
REMARK    6  A    between atoms: N_15  and  C_14 
REMARK    7  A    between atoms: N_20  and  C_19 
REMARK       I    between atoms: C_22  and  N_20 
ROOT
ATOM      1  C   LIG d   1      -2.713  74.851 115.862  0.00  0.00     0.161 C 
ATOM      2  C   LIG d   1      -2.174  74.024 116.861  0.00  0.00     0.016 C 
ATOM      3  C   LIG d   1      -0.915  74.251 117.464  0.00  0.00     0.038 C 
ATOM      4  C   LIG d   1      -0.173  75.415 117.214  0.00  0.00     0.028 C 
ATOM      5  C   LIG d   1      -0.442  76.022 115.842  0.00  0.00    -0.047 C 
ATOM      6  C   LIG d   1      -1.968  76.187 115.656  0.00  0.00     0.091 C 
ENDROOT
BRANCH   1   7
ATOM      7  O   LIG d   1      -4.109  75.092 116.129  0.00  0.00    -0.368 OA
BRANCH   7   8
ATOM      8  C   LIG d   1      -5.020  74.024 115.772  0.00  0.00     0.119 C 
BRANCH   8   9
ATOM      9  C   LIG d   1      -5.663  74.396 114.421  0.00  0.00     0.028 C 
ATOM     10  C   LIG d   1      -5.849  75.913 114.258  0.00  0.00     0.006 C 
ENDBRANCH   8   9
BRANCH   8  11
ATOM     11  C   LIG d   1      -6.184  73.930 116.762  0.00  0.00     0.028 C 
ATOM     12  C   LIG d   1      -7.122  72.748 116.469  0.00  0.00     0.006 C 
ENDBRANCH   8  11
ENDBRANCH   7   8
ENDBRANCH   1   7
BRANCH   6  13
ATOM     13  N   LIG d   1      -2.324  76.697 114.307  0.00  0.00    -0.311 N 
ATOM     14  C   LIG d   1      -2.475  77.991 114.028  0.00  0.00     0.210 C 
ATOM     15  C   LIG d   1      -2.862  78.299 112.579  0.00  0.00     0.109 C 
ATOM     16  O   LIG d   1      -2.294  78.914 114.836  0.00  0.00    -0.276 OA
ATOM     17  H   LIG d   1      -2.459  76.018 113.583  0.00  0.00     0.149 HD
ENDBRANCH   6  13
BRANCH   5  18
ATOM     18  N   LIG d   1       0.290  77.301 115.768  0.00  0.00     0.381 N 
ATOM     19  H   LIG d   1       1.248  77.129 115.537  0.00  0.00    -0.090 HD
ATOM     20  H   LIG d   1       0.258  77.746 116.669  0.00  0.00    -0.090 HD
ATOM     21  H   LIG d   1      -0.124  77.892 115.082  0.00  0.00    -0.090 HD
ENDBRANCH   5  18
BRANCH   3  22
ATOM     22  C   LIG d   1      -0.369  73.287 118.298  0.00  0.00     0.382 C 
ATOM     23  O   LIG d   1       0.566  73.590 119.077  0.00  0.00    -0.241 OA
ATOM     24  O   LIG d   1      -0.769  72.109 118.249  0.00  0.00    -0.241 OA
ENDBRANCH   3  22
TORSDOF 7
ENDMDL
MODEL 9
REMARK VINA RESULT:      -5.3      6.668     10.002
REMARK  7 active torsions:
REMARK  status: ('A' for Active; 'I' for Inactive)
REMARK    1  A    between atoms: C_2  and  C_3 
REMARK    2  A    between atoms: C_3  and  O_6 
REMARK    3  A    between atoms: C_3  and  C_4 
REMARK    4  A    between atoms: C_7  and  O_6 
REMARK    5  A    between atoms: C_9  and  C_10 
REMARK    6  A    between atoms: N_15  and  C_14 
REMARK    7  A    between atoms: N_20  and  C_19 
REMARK       I    between atoms: C_22  and  N_20 
ROOT
ATOM      1  C   LIG d   1      -3.108  76.570 117.201  0.00  0.00     0.161 C 
ATOM      2  C   LIG d   1      -3.480  77.783 116.597  0.00  0.00     0.016 C 
ATOM      3  C   LIG d   1      -2.665  78.472 115.670  0.00  0.00     0.038 C 
ATOM      4  C   LIG d   1      -1.481  77.915 115.166  0.00  0.00     0.028 C 
ATOM      5  C   LIG d   1      -0.819  76.930 116.123  0.00  0.00    -0.047 C 
ATOM      6  C   LIG d   1      -1.869  75.892 116.579  0.00  0.00     0.091 C 
ENDROOT
BRANCH   1   7
ATOM      7  O   LIG d   1      -4.227  75.662 117.204  0.00  0.00    -0.368 OA
BRANCH   7   8
ATOM      8  C   LIG d   1      -5.362  76.047 116.391  0.00  0.00     0.119 C 
BRANCH   8   9
ATOM      9  C   LIG d   1      -6.637  75.729 117.195  0.00  0.00     0.028 C 
ATOM     10  C   LIG d   1      -7.182  74.321 116.900  0.00  0.00     0.006 C 
ENDBRANCH   8   9
BRANCH   8  11
ATOM     11  C   LIG d   1      -5.457  75.189 115.125  0.00  0.00     0.028 C 
ATOM     12  C   LIG d   1      -5.767  76.015 113.867  0.00  0.00     0.006 C 
ENDBRANCH   8  11
ENDBRANCH   7   8
ENDBRANCH   1   7
BRANCH   6  13
ATOM     13  N   LIG d   1      -1.326  74.940 117.584  0.00  0.00    -0.311 N 
ATOM     14  C   LIG d   1      -0.839  73.741 117.269  0.00  0.00     0.210 C 
ATOM     15  C   LIG d   1      -0.348  72.910 118.459  0.00  0.00     0.109 C 
ATOM     16  O   LIG d   1      -0.738  73.299 116.115  0.00  0.00    -0.276 OA
ATOM     17  H   LIG d   1      -1.340  75.231 118.542  0.00  0.00     0.149 HD
ENDBRANCH   6  13
BRANCH   5  18
ATOM     18  N   LIG d   1       0.326  76.324 115.418  0.00  0.00     0.381 N 
ATOM     19  H   LIG d   1       1.152  76.861 115.589  0.00  0.00    -0.090 HD
ATOM     20  H   LIG d   1       0.142  76.334 114.430  0.00  0.00    -0.090 HD
ATOM     21  H   LIG d   1       0.460  75.387 115.728  0.00  0.00    -0.090 HD
ENDBRANCH   5  18
BRANCH   3  22
ATOM     22  C   LIG d   1      -3.015  79.752 115.268  0.00  0.00     0.382 C 
ATOM     23  O   LIG d   1      -3.422  80.586 116.112  0.00  0.00    -0.241 OA
ATOM     24  O   LIG d   1      -2.970  80.071 114.064  0.00  0.00    -0.241 OA
ENDBRANCH   3  22
TORSDOF 7
ENDMDL
