MODEL 1
REMARK VINA RESULT:      -6.7      0.000      0.000
REMARK  7 active torsions:
REMARK  status: ('A' for Active; 'I' for Inactive)
REMARK    1  A    between atoms: C_2  and  C_3 
REMARK    2  A    between atoms: C_3  and  O_6 
REMARK    3  A    between atoms: C_3  and  C_4 
REMARK    4  A    between atoms: C_7  and  O_6 
REMARK    5  A    between atoms: C_9  and  C_10 
REMARK    6  A    between atoms: N_15  and  C_14 
REMARK    7  A    between atoms: N_20  and  C_19 
REMARK       I    between atoms: C_22  and  N_20 
ROOT
ATOM      1  C   LIG d   1       0.972  83.898 109.552  0.00  0.00     0.161 C 
ATOM      2  C   LIG d   1       0.659  85.184 110.023  0.00  0.00     0.016 C 
ATOM      3  C   LIG d   1      -0.193  85.422 111.126  0.00  0.00     0.038 C 
ATOM      4  C   LIG d   1      -0.673  84.379 111.932  0.00  0.00     0.028 C 
ATOM      5  C   LIG d   1      -0.793  83.050 111.194  0.00  0.00    -0.047 C 
ATOM      6  C   LIG d   1       0.547  82.745 110.486  0.00  0.00     0.091 C 
ENDROOT
BRANCH   1   7
ATOM      7  O   LIG d   1       2.381  83.813 109.261  0.00  0.00    -0.368 OA
BRANCH   7   8
ATOM      8  C   LIG d   1       3.251  83.558 110.391  0.00  0.00     0.119 C 
BRANCH   8   9
ATOM      9  C   LIG d   1       3.904  84.897 110.785  0.00  0.00     0.028 C 
ATOM     10  C   LIG d   1       3.655  85.260 112.258  0.00  0.00     0.006 C 
ENDBRANCH   8   9
BRANCH   8  11
ATOM     11  C   LIG d   1       4.413  82.639 110.003  0.00  0.00     0.028 C 
ATOM     12  C   LIG d   1       4.258  82.044 108.594  0.00  0.00     0.006 C 
ENDBRANCH   8  11
ENDBRANCH   7   8
ENDBRANCH   1   7
BRANCH   6  13
ATOM     13  N   LIG d   1       0.489  81.504 109.671  0.00  0.00    -0.311 N 
ATOM     14  C   LIG d   1       1.169  80.398 109.970  0.00  0.00     0.210 C 
ATOM     15  C   LIG d   1       0.982  79.239 108.986  0.00  0.00     0.109 C 
ATOM     16  O   LIG d   1       1.884  80.257 110.973  0.00  0.00    -0.276 OA
ATOM     17  H   LIG d   1      -0.092  81.520 108.856  0.00  0.00     0.149 HD
ENDBRANCH   6  13
BRANCH   5  18
ATOM     18  N   LIG d   1      -1.171  82.023 112.183  0.00  0.00     0.381 N 
ATOM     19  H   LIG d   1      -1.904  82.370 112.769  0.00  0.00    -0.090 HD
ATOM     20  H   LIG d   1      -0.374  81.820 112.761  0.00  0.00    -0.090 HD
ATOM     21  H   LIG d   1      -1.472  81.195 111.718  0.00  0.00    -0.090 HD
ENDBRANCH   5  18
BRANCH   3  22
ATOM     22  C   LIG d   1      -0.606  86.715 111.408  0.00  0.00     0.382 C 
ATOM     23  O   LIG d   1       0.212  87.547 111.871  0.00  0.00    -0.241 OA
ATOM     24  O   LIG d   1      -1.795  87.048 111.248  0.00  0.00    -0.241 OA
ENDBRANCH   3  22
TORSDOF 7
ENDMDL
MODEL 2
REMARK VINA RESULT:      -6.4      2.466      4.204
REMARK  7 active torsions:
REMARK  status: ('A' for Active; 'I' for Inactive)
REMARK    1  A    between atoms: C_2  and  C_3 
REMARK    2  A    between atoms: C_3  and  O_6 
REMARK    3  A    between atoms: C_3  and  C_4 
REMARK    4  A    between atoms: C_7  and  O_6 
REMARK    5  A    between atoms: C_9  and  C_10 
REMARK    6  A    between atoms: N_15  and  C_14 
REMARK    7  A    between atoms: N_20  and  C_19 
REMARK       I    between atoms: C_22  and  N_20 
ROOT
ATOM      1  C   LIG d   1       0.552  82.203 111.084  0.00  0.00     0.161 C 
ATOM      2  C   LIG d   1      -0.657  82.050 111.782  0.00  0.00     0.016 C 
ATOM      3  C   LIG d   1      -1.322  80.811 111.925  0.00  0.00     0.038 C 
ATOM      4  C   LIG d   1      -0.742  79.605 111.505  0.00  0.00     0.028 C 
ATOM      5  C   LIG d   1       0.239  79.775 110.349  0.00  0.00    -0.047 C 
ATOM      6  C   LIG d   1       1.256  80.881 110.714  0.00  0.00     0.091 C 
ENDROOT
BRANCH   1   7
ATOM      7  O   LIG d   1       1.444  83.054 111.830  0.00  0.00    -0.368 OA
BRANCH   7   8
ATOM      8  C   LIG d   1       1.650  84.385 111.297  0.00  0.00     0.119 C 
BRANCH   8   9
ATOM      9  C   LIG d   1       1.064  84.409 109.872  0.00  0.00     0.028 C 
ATOM     10  C   LIG d   1       0.333  85.725 109.560  0.00  0.00     0.006 C 
ENDBRANCH   8   9
BRANCH   8  11
ATOM     11  C   LIG d   1       3.141  84.692 111.128  0.00  0.00     0.028 C 
ATOM     12  C   LIG d   1       3.536  86.063 111.701  0.00  0.00     0.006 C 
ENDBRANCH   8  11
ENDBRANCH   7   8
ENDBRANCH   1   7
BRANCH   6  13
ATOM     13  N   LIG d   1       2.201  81.170 109.603  0.00  0.00    -0.311 N 
ATOM     14  C   LIG d   1       3.505  81.370 109.784  0.00  0.00     0.210 C 
ATOM     15  C   LIG d   1       4.296  81.673 108.507  0.00  0.00     0.109 C 
ATOM     16  O   LIG d   1       4.088  81.293 110.876  0.00  0.00    -0.276 OA
ATOM     17  H   LIG d   1       1.818  81.219 108.680  0.00  0.00     0.149 HD
ENDBRANCH   6  13
BRANCH   5  18
ATOM     18  N   LIG d   1       0.872  78.465 110.105  0.00  0.00     0.381 N 
ATOM     19  H   LIG d   1       1.242  78.436 109.176  0.00  0.00    -0.090 HD
ATOM     20  H   LIG d   1       0.174  77.747 110.189  0.00  0.00    -0.090 HD
ATOM     21  H   LIG d   1       1.601  78.310 110.766  0.00  0.00    -0.090 HD
ENDBRANCH   5  18
BRANCH   3  22
ATOM     22  C   LIG d   1      -2.601  80.775 112.459  0.00  0.00     0.382 C 
ATOM     23  O   LIG d   1      -3.244  81.840 112.620  0.00  0.00    -0.241 OA
ATOM     24  O   LIG d   1      -3.104  79.695 112.823  0.00  0.00    -0.241 OA
ENDBRANCH   3  22
TORSDOF 7
ENDMDL
MODEL 3
REMARK VINA RESULT:      -6.0      2.498      4.695
REMARK  7 active torsions:
REMARK  status: ('A' for Active; 'I' for Inactive)
REMARK    1  A    between atoms: C_2  and  C_3 
REMARK    2  A    between atoms: C_3  and  O_6 
REMARK    3  A    between atoms: C_3  and  C_4 
REMARK    4  A    between atoms: C_7  and  O_6 
REMARK    5  A    between atoms: C_9  and  C_10 
REMARK    6  A    between atoms: N_15  and  C_14 
REMARK    7  A    between atoms: N_20  and  C_19 
REMARK       I    between atoms: C_22  and  N_20 
ROOT
ATOM      1  C   LIG d   1       1.265  81.443 111.800  0.00  0.00     0.161 C 
ATOM      2  C   LIG d   1       2.342  82.090 111.173  0.00  0.00     0.016 C 
ATOM      3  C   LIG d   1       2.516  82.130 109.770  0.00  0.00     0.038 C 
ATOM      4  C   LIG d   1       1.535  81.652 108.888  0.00  0.00     0.028 C 
ATOM      5  C   LIG d   1       0.674  80.544 109.483  0.00  0.00    -0.047 C 
ATOM      6  C   LIG d   1       0.127  81.012 110.851  0.00  0.00     0.091 C 
ENDROOT
BRANCH   1   7
ATOM      7  O   LIG d   1       0.747  82.273 112.859  0.00  0.00    -0.368 OA
BRANCH   7   8
ATOM      8  C   LIG d   1       0.886  83.703 112.674  0.00  0.00     0.119 C 
BRANCH   8   9
ATOM      9  C   LIG d   1       1.238  84.315 114.044  0.00  0.00     0.028 C 
ATOM     10  C   LIG d   1       0.976  85.830 114.095  0.00  0.00     0.006 C 
ENDBRANCH   8   9
BRANCH   8  11
ATOM     11  C   LIG d   1      -0.445  84.346 112.273  0.00  0.00     0.028 C 
ATOM     12  C   LIG d   1      -0.504  84.713 110.782  0.00  0.00     0.006 C 
ENDBRANCH   8  11
ENDBRANCH   7   8
ENDBRANCH   1   7
BRANCH   6  13
ATOM     13  N   LIG d   1      -0.657  79.955 111.540  0.00  0.00    -0.311 N 
ATOM     14  C   LIG d   1      -1.787  80.196 112.204  0.00  0.00     0.210 C 
ATOM     15  C   LIG d   1      -2.426  78.967 112.859  0.00  0.00     0.109 C 
ATOM     16  O   LIG d   1      -2.336  81.305 112.286  0.00  0.00    -0.276 OA
ATOM     17  H   LIG d   1      -0.300  79.021 111.498  0.00  0.00     0.149 HD
ENDBRANCH   6  13
BRANCH   5  18
ATOM     18  N   LIG d   1      -0.391  80.236 108.510  0.00  0.00     0.381 N 
ATOM     19  H   LIG d   1      -1.281  80.491 108.889  0.00  0.00    -0.090 HD
ATOM     20  H   LIG d   1      -0.395  79.246 108.335  0.00  0.00    -0.090 HD
ATOM     21  H   LIG d   1      -0.230  80.730 107.660  0.00  0.00    -0.090 HD
ENDBRANCH   5  18
BRANCH   3  22
ATOM     22  C   LIG d   1       3.700  82.618 109.238  0.00  0.00     0.382 C 
ATOM     23  O   LIG d   1       4.287  81.983 108.328  0.00  0.00    -0.241 OA
ATOM     24  O   LIG d   1       4.211  83.662 109.685  0.00  0.00    -0.241 OA
ENDBRANCH   3  22
TORSDOF 7
ENDMDL
MODEL 4
REMARK VINA RESULT:      -5.8      2.026      3.062
REMARK  7 active torsions:
REMARK  status: ('A' for Active; 'I' for Inactive)
REMARK    1  A    between atoms: C_2  and  C_3 
REMARK    2  A    between atoms: C_3  and  O_6 
REMARK    3  A    between atoms: C_3  and  C_4 
REMARK    4  A    between atoms: C_7  and  O_6 
REMARK    5  A    between atoms: C_9  and  C_10 
REMARK    6  A    between atoms: N_15  and  C_14 
REMARK    7  A    between atoms: N_20  and  C_19 
REMARK       I    between atoms: C_22  and  N_20 
ROOT
ATOM      1  C   LIG d   1       0.923  83.683 110.425  0.00  0.00     0.161 C 
ATOM      2  C   LIG d   1       1.750  84.818 110.461  0.00  0.00     0.016 C 
ATOM      3  C   LIG d   1       2.383  85.282 111.637  0.00  0.00     0.038 C 
ATOM      4  C   LIG d   1       2.354  84.550 112.833  0.00  0.00     0.028 C 
ATOM      5  C   LIG d   1       1.119  83.666 112.972  0.00  0.00    -0.047 C 
ATOM      6  C   LIG d   1       0.968  82.809 111.695  0.00  0.00     0.091 C 
ENDROOT
BRANCH   1   7
ATOM      7  O   LIG d   1       1.231  82.892 109.260  0.00  0.00    -0.368 OA
BRANCH   7   8
ATOM      8  C   LIG d   1       2.287  81.912 109.416  0.00  0.00     0.119 C 
BRANCH   8   9
ATOM      9  C   LIG d   1       3.380  82.241 108.381  0.00  0.00     0.028 C 
ATOM     10  C   LIG d   1       4.709  82.647 109.040  0.00  0.00     0.006 C 
ENDBRANCH   8   9
BRANCH   8  11
ATOM     11  C   LIG d   1       1.800  80.505 109.058  0.00  0.00     0.028 C 
ATOM     12  C   LIG d   1       2.709  79.399 109.616  0.00  0.00     0.006 C 
ENDBRANCH   8  11
ENDBRANCH   7   8
ENDBRANCH   1   7
BRANCH   6  13
ATOM     13  N   LIG d   1      -0.263  81.976 111.713  0.00  0.00    -0.311 N 
ATOM     14  C   LIG d   1      -0.287  80.712 112.133  0.00  0.00     0.210 C 
ATOM     15  C   LIG d   1      -1.656  80.030 112.048  0.00  0.00     0.109 C 
ATOM     16  O   LIG d   1       0.688  80.102 112.597  0.00  0.00    -0.276 OA
ATOM     17  H   LIG d   1      -1.106  82.402 111.382  0.00  0.00     0.149 HD
ENDBRANCH   6  13
BRANCH   5  18
ATOM     18  N   LIG d   1       1.284  82.858 114.195  0.00  0.00     0.381 N 
ATOM     19  H   LIG d   1       2.223  82.940 114.531  0.00  0.00    -0.090 HD
ATOM     20  H   LIG d   1       1.111  81.893 113.973  0.00  0.00    -0.090 HD
ATOM     21  H   LIG d   1       0.645  83.165 114.896  0.00  0.00    -0.090 HD
ENDBRANCH   5  18
BRANCH   3  22
ATOM     22  C   LIG d   1       3.023  86.512 111.634  0.00  0.00     0.382 C 
ATOM     23  O   LIG d   1       2.349  87.570 111.667  0.00  0.00    -0.241 OA
ATOM     24  O   LIG d   1       4.264  86.578 111.552  0.00  0.00    -0.241 OA
ENDBRANCH   3  22
TORSDOF 7
ENDMDL
MODEL 5
REMARK VINA RESULT:      -5.7      2.372      5.687
REMARK  7 active torsions:
REMARK  status: ('A' for Active; 'I' for Inactive)
REMARK    1  A    between atoms: C_2  and  C_3 
REMARK    2  A    between atoms: C_3  and  O_6 
REMARK    3  A    between atoms: C_3  and  C_4 
REMARK    4  A    between atoms: C_7  and  O_6 
REMARK    5  A    between atoms: C_9  and  C_10 
REMARK    6  A    between atoms: N_15  and  C_14 
REMARK    7  A    between atoms: N_20  and  C_19 
REMARK       I    between atoms: C_22  and  N_20 
ROOT
ATOM      1  C   LIG d   1       1.014  83.166 109.783  0.00  0.00     0.161 C 
ATOM      2  C   LIG d   1       2.138  82.444 109.348  0.00  0.00     0.016 C 
ATOM      3  C   LIG d   1       3.468  82.881 109.548  0.00  0.00     0.038 C 
ATOM      4  C   LIG d   1       3.769  84.002 110.335  0.00  0.00     0.028 C 
ATOM      5  C   LIG d   1       2.651  85.038 110.367  0.00  0.00    -0.047 C 
ATOM      6  C   LIG d   1       1.326  84.335 110.740  0.00  0.00     0.091 C 
ENDROOT
BRANCH   1   7
ATOM      7  O   LIG d   1       0.059  82.268 110.383  0.00  0.00    -0.368 OA
BRANCH   7   8
ATOM      8  C   LIG d   1       0.572  80.980 110.803  0.00  0.00     0.119 C 
BRANCH   8   9
ATOM      9  C   LIG d   1      -0.427  79.906 110.330  0.00  0.00     0.028 C 
ATOM     10  C   LIG d   1      -0.410  79.722 108.803  0.00  0.00     0.006 C 
ENDBRANCH   8   9
BRANCH   8  11
ATOM     11  C   LIG d   1       0.600  80.863 112.330  0.00  0.00     0.028 C 
ATOM     12  C   LIG d   1       1.996  81.114 112.922  0.00  0.00     0.006 C 
ENDBRANCH   8  11
ENDBRANCH   7   8
ENDBRANCH   1   7
BRANCH   6  13
ATOM     13  N   LIG d   1       0.165  85.262 110.712  0.00  0.00    -0.311 N 
ATOM     14  C   LIG d   1      -0.230  85.975 111.765  0.00  0.00     0.210 C 
ATOM     15  C   LIG d   1      -1.462  86.853 111.527  0.00  0.00     0.109 C 
ATOM     16  O   LIG d   1       0.343  85.988 112.865  0.00  0.00    -0.276 OA
ATOM     17  H   LIG d   1      -0.339  85.336 109.849  0.00  0.00     0.149 HD
ENDBRANCH   6  13
BRANCH   5  18
ATOM     18  N   LIG d   1       3.041  86.085 111.331  0.00  0.00     0.381 N 
ATOM     19  H   LIG d   1       2.642  85.887 112.226  0.00  0.00    -0.090 HD
ATOM     20  H   LIG d   1       2.682  86.968 111.014  0.00  0.00    -0.090 HD
ATOM     21  H   LIG d   1       4.033  86.129 111.404  0.00  0.00    -0.090 HD
ENDBRANCH   5  18
BRANCH   3  22
ATOM     22  C   LIG d   1       4.511  82.214 108.923  0.00  0.00     0.382 C 
ATOM     23  O   LIG d   1       4.469  80.967 108.792  0.00  0.00    -0.241 OA
ATOM     24  O   LIG d   1       5.514  82.839 108.530  0.00  0.00    -0.241 OA
ENDBRANCH   3  22
TORSDOF 7
ENDMDL
MODEL 6
REMARK VINA RESULT:      -5.7      2.285      4.949
REMARK  7 active torsions:
REMARK  status: ('A' for Active; 'I' for Inactive)
REMARK    1  A    between atoms: C_2  and  C_3 
REMARK    2  A    between atoms: C_3  and  O_6 
REMARK    3  A    between atoms: C_3  and  C_4 
REMARK    4  A    between atoms: C_7  and  O_6 
REMARK    5  A    between atoms: C_9  and  C_10 
REMARK    6  A    between atoms: N_15  and  C_14 
REMARK    7  A    between atoms: N_20  and  C_19 
REMARK       I    between atoms: C_22  and  N_20 
ROOT
ATOM      1  C   LIG d   1       0.811  82.206 110.869  0.00  0.00     0.161 C 
ATOM      2  C   LIG d   1       2.001  82.574 110.218  0.00  0.00     0.016 C 
ATOM      3  C   LIG d   1       2.818  81.659 109.516  0.00  0.00     0.038 C 
ATOM      4  C   LIG d   1       2.420  80.333 109.287  0.00  0.00     0.028 C 
ATOM      5  C   LIG d   1       1.473  79.793 110.354  0.00  0.00    -0.047 C 
ATOM      6  C   LIG d   1       0.304  80.787 110.537  0.00  0.00     0.091 C 
ENDROOT
BRANCH   1   7
ATOM      7  O   LIG d   1      -0.215  83.181 110.598  0.00  0.00    -0.368 OA
BRANCH   7   8
ATOM      8  C   LIG d   1      -0.643  83.986 111.725  0.00  0.00     0.119 C 
BRANCH   8   9
ATOM      9  C   LIG d   1      -0.669  85.455 111.261  0.00  0.00     0.028 C 
ATOM     10  C   LIG d   1      -0.060  85.640 109.861  0.00  0.00     0.006 C 
ENDBRANCH   8   9
BRANCH   8  11
ATOM     11  C   LIG d   1       0.379  83.938 112.864  0.00  0.00     0.028 C 
ATOM     12  C   LIG d   1       0.783  85.335 113.362  0.00  0.00     0.006 C 
ENDBRANCH   8  11
ENDBRANCH   7   8
ENDBRANCH   1   7
BRANCH   6  13
ATOM     13  N   LIG d   1      -0.625  80.376 111.622  0.00  0.00    -0.311 N 
ATOM     14  C   LIG d   1      -1.627  79.518 111.442  0.00  0.00     0.210 C 
ATOM     15  C   LIG d   1      -2.477  79.247 112.688  0.00  0.00     0.109 C 
ATOM     16  O   LIG d   1      -1.874  78.931 110.378  0.00  0.00    -0.276 OA
ATOM     17  H   LIG d   1      -0.478  80.781 112.526  0.00  0.00     0.149 HD
ENDBRANCH   6  13
BRANCH   5  18
ATOM     18  N   LIG d   1       1.031  78.454 109.919  0.00  0.00     0.381 N 
ATOM     19  H   LIG d   1       1.107  77.809 110.680  0.00  0.00    -0.090 HD
ATOM     20  H   LIG d   1       1.631  78.138 109.178  0.00  0.00    -0.090 HD
ATOM     21  H   LIG d   1       0.088  78.494 109.600  0.00  0.00    -0.090 HD
ENDBRANCH   5  18
BRANCH   3  22
ATOM     22  C   LIG d   1       4.068  82.058 109.067  0.00  0.00     0.382 C 
ATOM     23  O   LIG d   1       4.501  83.200 109.353  0.00  0.00    -0.241 OA
ATOM     24  O   LIG d   1       4.749  81.307 108.344  0.00  0.00    -0.241 OA
ENDBRANCH   3  22
TORSDOF 7
ENDMDL
MODEL 7
REMARK VINA RESULT:      -4.8      2.937      6.483
REMARK  7 active torsions:
REMARK  status: ('A' for Active; 'I' for Inactive)
REMARK    1  A    between atoms: C_2  and  C_3 
REMARK    2  A    between atoms: C_3  and  O_6 
REMARK    3  A    between atoms: C_3  and  C_4 
REMARK    4  A    between atoms: C_7  and  O_6 
REMARK    5  A    between atoms: C_9  and  C_10 
REMARK    6  A    between atoms: N_15  and  C_14 
REMARK    7  A    between atoms: N_20  and  C_19 
REMARK       I    between atoms: C_22  and  N_20 
ROOT
ATOM      1  C   LIG d   1       0.457  81.559 111.751  0.00  0.00     0.161 C 
ATOM      2  C   LIG d   1       1.085  80.577 110.967  0.00  0.00     0.016 C 
ATOM      3  C   LIG d   1       2.448  80.632 110.596  0.00  0.00     0.038 C 
ATOM      4  C   LIG d   1       3.319  81.601 111.115  0.00  0.00     0.028 C 
ATOM      5  C   LIG d   1       2.619  82.898 111.505  0.00  0.00    -0.047 C 
ATOM      6  C   LIG d   1       1.418  82.566 112.418  0.00  0.00     0.091 C 
ENDROOT
BRANCH   1   7
ATOM      7  O   LIG d   1      -0.379  80.931 112.743  0.00  0.00    -0.368 OA
BRANCH   7   8
ATOM      8  C   LIG d   1      -0.632  79.516 112.560  0.00  0.00     0.119 C 
BRANCH   8   9
ATOM      9  C   LIG d   1      -2.036  79.374 111.942  0.00  0.00     0.028 C 
ATOM     10  C   LIG d   1      -2.027  78.534 110.653  0.00  0.00     0.006 C 
ENDBRANCH   8   9
BRANCH   8  11
ATOM     11  C   LIG d   1      -0.705  78.785 113.904  0.00  0.00     0.028 C 
ATOM     12  C   LIG d   1      -2.148  78.544 114.374  0.00  0.00     0.006 C 
ENDBRANCH   8  11
ENDBRANCH   7   8
ENDBRANCH   1   7
BRANCH   6  13
ATOM     13  N   LIG d   1       0.627  83.772 112.777  0.00  0.00    -0.311 N 
ATOM     14  C   LIG d   1      -0.002  84.530 111.881  0.00  0.00     0.210 C 
ATOM     15  C   LIG d   1      -0.743  85.738 112.461  0.00  0.00     0.109 C 
ATOM     16  O   LIG d   1      -0.043  84.298 110.663  0.00  0.00    -0.276 OA
ATOM     17  H   LIG d   1       0.582  84.016 113.747  0.00  0.00     0.149 HD
ENDBRANCH   6  13
BRANCH   5  18
ATOM     18  N   LIG d   1       3.619  83.766 112.157  0.00  0.00     0.381 N 
ATOM     19  H   LIG d   1       4.320  84.032 111.494  0.00  0.00    -0.090 HD
ATOM     20  H   LIG d   1       4.063  83.251 112.896  0.00  0.00    -0.090 HD
ATOM     21  H   LIG d   1       3.176  84.578 112.526  0.00  0.00    -0.090 HD
ENDBRANCH   5  18
BRANCH   3  22
ATOM     22  C   LIG d   1       2.944  79.731 109.666  0.00  0.00     0.382 C 
ATOM     23  O   LIG d   1       2.392  78.614 109.518  0.00  0.00    -0.241 OA
ATOM     24  O   LIG d   1       3.962  80.005 109.002  0.00  0.00    -0.241 OA
ENDBRANCH   3  22
TORSDOF 7
ENDMDL
MODEL 8
REMARK VINA RESULT:      -3.8     28.928     30.850
REMARK  7 active torsions:
REMARK  status: ('A' for Active; 'I' for Inactive)
REMARK    1  A    between atoms: C_2  and  C_3 
REMARK    2  A    between atoms: C_3  and  O_6 
REMARK    3  A    between atoms: C_3  and  C_4 
REMARK    4  A    between atoms: C_7  and  O_6 
REMARK    5  A    between atoms: C_9  and  C_10 
REMARK    6  A    between atoms: N_15  and  C_14 
REMARK    7  A    between atoms: N_20  and  C_19 
REMARK       I    between atoms: C_22  and  N_20 
ROOT
ATOM      1  C   LIG d   1     -26.726  71.197 109.899  0.00  0.00     0.161 C 
ATOM      2  C   LIG d   1     -26.098  72.395 110.278  0.00  0.00     0.016 C 
ATOM      3  C   LIG d   1     -26.475  73.663 109.780  0.00  0.00     0.038 C 
ATOM      4  C   LIG d   1     -27.613  73.836 108.978  0.00  0.00     0.028 C 
ATOM      5  C   LIG d   1     -27.975  72.598 108.165  0.00  0.00    -0.047 C 
ATOM      6  C   LIG d   1     -28.040  71.377 109.111  0.00  0.00     0.091 C 
ENDROOT
BRANCH   1   7
ATOM      7  O   LIG d   1     -26.947  70.372 111.060  0.00  0.00    -0.368 OA
BRANCH   7   8
ATOM      8  C   LIG d   1     -25.925  70.428 112.085  0.00  0.00     0.119 C 
BRANCH   8   9
ATOM      9  C   LIG d   1     -25.171  69.084 112.061  0.00  0.00     0.028 C 
ATOM     10  C   LIG d   1     -23.676  69.244 112.389  0.00  0.00     0.006 C 
ENDBRANCH   8   9
BRANCH   8  11
ATOM     11  C   LIG d   1     -26.543  70.521 113.483  0.00  0.00     0.028 C 
ATOM     12  C   LIG d   1     -26.749  71.971 113.949  0.00  0.00     0.006 C 
ENDBRANCH   8  11
ENDBRANCH   7   8
ENDBRANCH   1   7
BRANCH   6  13
ATOM     13  N   LIG d   1     -28.306  70.109 108.382  0.00  0.00    -0.311 N 
ATOM     14  C   LIG d   1     -29.247  69.239 108.745  0.00  0.00     0.210 C 
ATOM     15  C   LIG d   1     -29.340  67.986 107.868  0.00  0.00     0.109 C 
ATOM     16  O   LIG d   1     -30.034  69.401 109.689  0.00  0.00    -0.276 OA
ATOM     17  H   LIG d   1     -27.733  69.913 107.585  0.00  0.00     0.149 HD
ENDBRANCH   6  13
BRANCH   5  18
ATOM     18  N   LIG d   1     -29.254  72.871 107.483  0.00  0.00     0.381 N 
ATOM     19  H   LIG d   1     -29.614  73.756 107.779  0.00  0.00    -0.090 HD
ATOM     20  H   LIG d   1     -29.917  72.160 107.739  0.00  0.00    -0.090 HD
ATOM     21  H   LIG d   1     -29.121  72.872 106.496  0.00  0.00    -0.090 HD
ENDBRANCH   5  18
BRANCH   3  22
ATOM     22  C   LIG d   1     -25.686  74.771 110.052  0.00  0.00     0.382 C 
ATOM     23  O   LIG d   1     -24.498  74.807 109.652  0.00  0.00    -0.241 OA
ATOM     24  O   LIG d   1     -26.135  75.715 110.730  0.00  0.00    -0.241 OA
ENDBRANCH   3  22
TORSDOF 7
ENDMDL
