MODEL 1
REMARK VINA RESULT:      -6.8      0.000      0.000
REMARK  7 active torsions:
REMARK  status: ('A' for Active; 'I' for Inactive)
REMARK    1  A    between atoms: C_2  and  C_3 
REMARK    2  A    between atoms: C_3  and  O_6 
REMARK    3  A    between atoms: C_3  and  C_4 
REMARK    4  A    between atoms: C_7  and  O_6 
REMARK    5  A    between atoms: C_9  and  C_10 
REMARK    6  A    between atoms: N_15  and  C_14 
REMARK    7  A    between atoms: N_20  and  C_19 
REMARK       I    between atoms: C_22  and  N_20 
ROOT
ATOM      1  C   LIG d   1       1.558  83.854 109.116  0.00  0.00     0.161 C 
ATOM      2  C   LIG d   1       1.749  85.161 109.593  0.00  0.00     0.016 C 
ATOM      3  C   LIG d   1       1.219  85.628 110.818  0.00  0.00     0.038 C 
ATOM      4  C   LIG d   1       0.584  84.768 111.726  0.00  0.00     0.028 C 
ATOM      5  C   LIG d   1      -0.071  83.562 111.062  0.00  0.00    -0.047 C 
ATOM      6  C   LIG d   1       0.963  82.870 110.145  0.00  0.00     0.091 C 
ENDROOT
BRANCH   1   7
ATOM      7  O   LIG d   1       2.797  83.340 108.590  0.00  0.00    -0.368 OA
BRANCH   7   8
ATOM      8  C   LIG d   1       3.577  82.514 109.489  0.00  0.00     0.119 C 
BRANCH   8   9
ATOM      9  C   LIG d   1       4.824  83.322 109.896  0.00  0.00     0.028 C 
ATOM     10  C   LIG d   1       4.757  83.810 111.353  0.00  0.00     0.006 C 
ENDBRANCH   8   9
BRANCH   8  11
ATOM     11  C   LIG d   1       4.115  81.269 108.776  0.00  0.00     0.028 C 
ATOM     12  C   LIG d   1       4.499  80.144 109.750  0.00  0.00     0.006 C 
ENDBRANCH   8  11
ENDBRANCH   7   8
ENDBRANCH   1   7
BRANCH   6  13
ATOM     13  N   LIG d   1       0.379  81.730 109.391  0.00  0.00    -0.311 N 
ATOM     14  C   LIG d   1       0.507  80.459 109.769  0.00  0.00     0.210 C 
ATOM     15  C   LIG d   1      -0.155  79.438 108.839  0.00  0.00     0.109 C 
ATOM     16  O   LIG d   1       1.079  80.083 110.803  0.00  0.00    -0.276 OA
ATOM     17  H   LIG d   1      -0.128  81.947 108.556  0.00  0.00     0.149 HD
ENDBRANCH   6  13
BRANCH   5  18
ATOM     18  N   LIG d   1      -0.574  82.681 112.133  0.00  0.00     0.381 N 
ATOM     19  H   LIG d   1      -1.410  83.068 112.525  0.00  0.00    -0.090 HD
ATOM     20  H   LIG d   1       0.118  82.625 112.860  0.00  0.00    -0.090 HD
ATOM     21  H   LIG d   1      -0.758  81.773 111.769  0.00  0.00    -0.090 HD
ENDBRANCH   5  18
BRANCH   3  22
ATOM     22  C   LIG d   1       1.287  86.978 111.127  0.00  0.00     0.382 C 
ATOM     23  O   LIG d   1       2.380  87.587 111.037  0.00  0.00    -0.241 OA
ATOM     24  O   LIG d   1       0.279  87.584 111.536  0.00  0.00    -0.241 OA
ENDBRANCH   3  22
TORSDOF 7
ENDMDL
MODEL 2
REMARK VINA RESULT:      -6.7      1.153      1.377
REMARK  7 active torsions:
REMARK  status: ('A' for Active; 'I' for Inactive)
REMARK    1  A    between atoms: C_2  and  C_3 
REMARK    2  A    between atoms: C_3  and  O_6 
REMARK    3  A    between atoms: C_3  and  C_4 
REMARK    4  A    between atoms: C_7  and  O_6 
REMARK    5  A    between atoms: C_9  and  C_10 
REMARK    6  A    between atoms: N_15  and  C_14 
REMARK    7  A    between atoms: N_20  and  C_19 
REMARK       I    between atoms: C_22  and  N_20 
ROOT
ATOM      1  C   LIG d   1       1.090  83.932 109.351  0.00  0.00     0.161 C 
ATOM      2  C   LIG d   1       0.732  85.221 109.780  0.00  0.00     0.016 C 
ATOM      3  C   LIG d   1      -0.120  85.466 110.881  0.00  0.00     0.038 C 
ATOM      4  C   LIG d   1      -0.555  84.435 111.726  0.00  0.00     0.028 C 
ATOM      5  C   LIG d   1      -0.631  83.077 111.035  0.00  0.00    -0.047 C 
ATOM      6  C   LIG d   1       0.715  82.798 110.328  0.00  0.00     0.091 C 
ENDROOT
BRANCH   1   7
ATOM      7  O   LIG d   1       2.499  83.890 109.051  0.00  0.00    -0.368 OA
BRANCH   7   8
ATOM      8  C   LIG d   1       3.373  83.519 110.146  0.00  0.00     0.119 C 
BRANCH   8   9
ATOM      9  C   LIG d   1       4.248  84.744 110.476  0.00  0.00     0.028 C 
ATOM     10  C   LIG d   1       3.810  85.447 111.771  0.00  0.00     0.006 C 
ENDBRANCH   8   9
BRANCH   8  11
ATOM     11  C   LIG d   1       4.354  82.420 109.729  0.00  0.00     0.028 C 
ATOM     12  C   LIG d   1       4.112  81.918 108.296  0.00  0.00     0.006 C 
ENDBRANCH   8  11
ENDBRANCH   7   8
ENDBRANCH   1   7
BRANCH   6  13
ATOM     13  N   LIG d   1       0.697  81.528 109.557  0.00  0.00    -0.311 N 
ATOM     14  C   LIG d   1       1.173  80.377 110.030  0.00  0.00     0.210 C 
ATOM     15  C   LIG d   1       1.075  79.192 109.064  0.00  0.00     0.109 C 
ATOM     16  O   LIG d   1       1.636  80.218 111.169  0.00  0.00    -0.276 OA
ATOM     17  H   LIG d   1       0.310  81.560 108.634  0.00  0.00     0.149 HD
ENDBRANCH   6  13
BRANCH   5  18
ATOM     18  N   LIG d   1      -0.963  82.072 112.063  0.00  0.00     0.381 N 
ATOM     19  H   LIG d   1      -0.126  81.754 112.509  0.00  0.00    -0.090 HD
ATOM     20  H   LIG d   1      -1.402  81.286 111.618  0.00  0.00    -0.090 HD
ATOM     21  H   LIG d   1      -1.579  82.467 112.739  0.00  0.00    -0.090 HD
ENDBRANCH   5  18
BRANCH   3  22
ATOM     22  C   LIG d   1      -0.579  86.753 111.122  0.00  0.00     0.382 C 
ATOM     23  O   LIG d   1       0.232  87.660 111.428  0.00  0.00    -0.241 OA
ATOM     24  O   LIG d   1      -1.797  87.007 111.080  0.00  0.00    -0.241 OA
ENDBRANCH   3  22
TORSDOF 7
ENDMDL
MODEL 3
REMARK VINA RESULT:      -6.2      2.203      5.341
REMARK  7 active torsions:
REMARK  status: ('A' for Active; 'I' for Inactive)
REMARK    1  A    between atoms: C_2  and  C_3 
REMARK    2  A    between atoms: C_3  and  O_6 
REMARK    3  A    between atoms: C_3  and  C_4 
REMARK    4  A    between atoms: C_7  and  O_6 
REMARK    5  A    between atoms: C_9  and  C_10 
REMARK    6  A    between atoms: N_15  and  C_14 
REMARK    7  A    between atoms: N_20  and  C_19 
REMARK       I    between atoms: C_22  and  N_20 
ROOT
ATOM      1  C   LIG d   1       1.580  82.308 111.159  0.00  0.00     0.161 C 
ATOM      2  C   LIG d   1       2.391  81.165 111.057  0.00  0.00     0.016 C 
ATOM      3  C   LIG d   1       2.838  80.636 109.824  0.00  0.00     0.038 C 
ATOM      4  C   LIG d   1       2.627  81.306 108.610  0.00  0.00     0.028 C 
ATOM      5  C   LIG d   1       1.385  82.191 108.614  0.00  0.00    -0.047 C 
ATOM      6  C   LIG d   1       1.432  83.115 109.853  0.00  0.00     0.091 C 
ENDROOT
BRANCH   1   7
ATOM      7  O   LIG d   1       2.062  83.155 112.220  0.00  0.00    -0.368 OA
BRANCH   7   8
ATOM      8  C   LIG d   1       3.050  84.146 111.845  0.00  0.00     0.119 C 
BRANCH   8   9
ATOM      9  C   LIG d   1       4.402  83.697 112.432  0.00  0.00     0.028 C 
ATOM     10  C   LIG d   1       5.323  83.071 111.372  0.00  0.00     0.006 C 
ENDBRANCH   8   9
BRANCH   8  11
ATOM     11  C   LIG d   1       2.755  85.501 112.496  0.00  0.00     0.028 C 
ATOM     12  C   LIG d   1       3.346  86.682 111.709  0.00  0.00     0.006 C 
ENDBRANCH   8  11
ENDBRANCH   7   8
ENDBRANCH   1   7
BRANCH   6  13
ATOM     13  N   LIG d   1       0.213  83.956 109.979  0.00  0.00    -0.311 N 
ATOM     14  C   LIG d   1       0.162  85.234 109.608  0.00  0.00     0.210 C 
ATOM     15  C   LIG d   1      -1.186  85.923 109.843  0.00  0.00     0.109 C 
ATOM     16  O   LIG d   1       1.096  85.854 109.077  0.00  0.00    -0.276 OA
ATOM     17  H   LIG d   1      -0.601  83.524 110.371  0.00  0.00     0.149 HD
ENDBRANCH   6  13
BRANCH   5  18
ATOM     18  N   LIG d   1       1.363  82.934 107.339  0.00  0.00     0.381 N 
ATOM     19  H   LIG d   1       2.241  82.829 106.871  0.00  0.00    -0.090 HD
ATOM     20  H   LIG d   1       1.224  83.910 107.534  0.00  0.00    -0.090 HD
ATOM     21  H   LIG d   1       0.627  82.595 106.760  0.00  0.00    -0.090 HD
ENDBRANCH   5  18
BRANCH   3  22
ATOM     22  C   LIG d   1       3.470  79.402 109.794  0.00  0.00     0.382 C 
ATOM     23  O   LIG d   1       4.722  79.340 109.757  0.00  0.00    -0.241 OA
ATOM     24  O   LIG d   1       2.802  78.351 109.760  0.00  0.00    -0.241 OA
ENDBRANCH   3  22
TORSDOF 7
ENDMDL
MODEL 4
REMARK VINA RESULT:      -6.2      2.313      4.853
REMARK  7 active torsions:
REMARK  status: ('A' for Active; 'I' for Inactive)
REMARK    1  A    between atoms: C_2  and  C_3 
REMARK    2  A    between atoms: C_3  and  O_6 
REMARK    3  A    between atoms: C_3  and  C_4 
REMARK    4  A    between atoms: C_7  and  O_6 
REMARK    5  A    between atoms: C_9  and  C_10 
REMARK    6  A    between atoms: N_15  and  C_14 
REMARK    7  A    between atoms: N_20  and  C_19 
REMARK       I    between atoms: C_22  and  N_20 
ROOT
ATOM      1  C   LIG d   1       1.242  82.614 111.396  0.00  0.00     0.161 C 
ATOM      2  C   LIG d   1       2.044  82.931 110.287  0.00  0.00     0.016 C 
ATOM      3  C   LIG d   1       2.056  82.172 109.094  0.00  0.00     0.038 C 
ATOM      4  C   LIG d   1       1.149  81.126 108.871  0.00  0.00     0.028 C 
ATOM      5  C   LIG d   1       0.671  80.455 110.155  0.00  0.00    -0.047 C 
ATOM      6  C   LIG d   1       0.164  81.542 111.130  0.00  0.00     0.091 C 
ENDROOT
BRANCH   1   7
ATOM      7  O   LIG d   1       0.637  83.813 111.920  0.00  0.00    -0.368 OA
BRANCH   7   8
ATOM      8  C   LIG d   1       0.598  84.951 111.024  0.00  0.00     0.119 C 
BRANCH   8   9
ATOM      9  C   LIG d   1       0.982  86.198 111.843  0.00  0.00     0.028 C 
ATOM     10  C   LIG d   1       2.230  86.905 111.285  0.00  0.00     0.006 C 
ENDBRANCH   8   9
BRANCH   8  11
ATOM     11  C   LIG d   1      -0.825  85.217 110.523  0.00  0.00     0.028 C 
ATOM     12  C   LIG d   1      -1.338  86.616 110.902  0.00  0.00     0.006 C 
ENDBRANCH   8  11
ENDBRANCH   7   8
ENDBRANCH   1   7
BRANCH   6  13
ATOM     13  N   LIG d   1      -0.243  80.979 112.444  0.00  0.00    -0.311 N 
ATOM     14  C   LIG d   1      -1.477  81.083 112.935  0.00  0.00     0.210 C 
ATOM     15  C   LIG d   1      -1.679  80.450 114.315  0.00  0.00     0.109 C 
ATOM     16  O   LIG d   1      -2.431  81.613 112.345  0.00  0.00    -0.276 OA
ATOM     17  H   LIG d   1       0.461  80.505 112.976  0.00  0.00     0.149 HD
ENDBRANCH   6  13
BRANCH   5  18
ATOM     18  N   LIG d   1      -0.371  79.479 109.786  0.00  0.00     0.381 N 
ATOM     19  H   LIG d   1      -0.886  79.208 110.600  0.00  0.00    -0.090 HD
ATOM     20  H   LIG d   1       0.070  78.660 109.406  0.00  0.00    -0.090 HD
ATOM     21  H   LIG d   1      -0.988  79.876 109.111  0.00  0.00    -0.090 HD
ENDBRANCH   5  18
BRANCH   3  22
ATOM     22  C   LIG d   1       3.011  82.434 108.123  0.00  0.00     0.382 C 
ATOM     23  O   LIG d   1       4.230  82.396 108.417  0.00  0.00    -0.241 OA
ATOM     24  O   LIG d   1       2.668  82.750 106.968  0.00  0.00    -0.241 OA
ENDBRANCH   3  22
TORSDOF 7
ENDMDL
MODEL 5
REMARK VINA RESULT:      -6.0      2.529      3.284
REMARK  7 active torsions:
REMARK  status: ('A' for Active; 'I' for Inactive)
REMARK    1  A    between atoms: C_2  and  C_3 
REMARK    2  A    between atoms: C_3  and  O_6 
REMARK    3  A    between atoms: C_3  and  C_4 
REMARK    4  A    between atoms: C_7  and  O_6 
REMARK    5  A    between atoms: C_9  and  C_10 
REMARK    6  A    between atoms: N_15  and  C_14 
REMARK    7  A    between atoms: N_20  and  C_19 
REMARK       I    between atoms: C_22  and  N_20 
ROOT
ATOM      1  C   LIG d   1       3.824  85.516 110.886  0.00  0.00     0.161 C 
ATOM      2  C   LIG d   1       3.910  86.488 111.896  0.00  0.00     0.016 C 
ATOM      3  C   LIG d   1       2.816  87.284 112.306  0.00  0.00     0.038 C 
ATOM      4  C   LIG d   1       1.515  87.055 111.834  0.00  0.00     0.028 C 
ATOM      5  C   LIG d   1       1.476  86.423 110.447  0.00  0.00    -0.047 C 
ATOM      6  C   LIG d   1       2.388  85.175 110.438  0.00  0.00     0.091 C 
ENDROOT
BRANCH   1   7
ATOM      7  O   LIG d   1       4.517  84.321 111.298  0.00  0.00    -0.368 OA
BRANCH   7   8
ATOM      8  C   LIG d   1       3.704  83.291 111.912  0.00  0.00     0.119 C 
BRANCH   8   9
ATOM      9  C   LIG d   1       4.093  83.221 113.401  0.00  0.00     0.028 C 
ATOM     10  C   LIG d   1       3.050  83.889 114.313  0.00  0.00     0.006 C 
ENDBRANCH   8   9
BRANCH   8  11
ATOM     11  C   LIG d   1       4.031  81.908 111.341  0.00  0.00     0.028 C 
ATOM     12  C   LIG d   1       4.989  81.970 110.141  0.00  0.00     0.006 C 
ENDBRANCH   8  11
ENDBRANCH   7   8
ENDBRANCH   1   7
BRANCH   6  13
ATOM     13  N   LIG d   1       2.473  84.545 109.095  0.00  0.00    -0.311 N 
ATOM     14  C   LIG d   1       1.732  83.502 108.725  0.00  0.00     0.210 C 
ATOM     15  C   LIG d   1       1.992  82.994 107.304  0.00  0.00     0.109 C 
ATOM     16  O   LIG d   1       0.860  82.969 109.429  0.00  0.00    -0.276 OA
ATOM     17  H   LIG d   1       3.133  84.934 108.450  0.00  0.00     0.149 HD
ENDBRANCH   6  13
BRANCH   5  18
ATOM     18  N   LIG d   1       0.068  86.113 110.137  0.00  0.00     0.381 N 
ATOM     19  H   LIG d   1      -0.435  86.960 109.962  0.00  0.00    -0.090 HD
ATOM     20  H   LIG d   1      -0.347  85.658 110.931  0.00  0.00    -0.090 HD
ATOM     21  H   LIG d   1       0.017  85.518 109.340  0.00  0.00    -0.090 HD
ENDBRANCH   5  18
BRANCH   3  22
ATOM     22  C   LIG d   1       3.025  88.349 113.168  0.00  0.00     0.382 C 
ATOM     23  O   LIG d   1       2.252  88.532 114.139  0.00  0.00    -0.241 OA
ATOM     24  O   LIG d   1       3.952  89.156 112.962  0.00  0.00    -0.241 OA
ENDBRANCH   3  22
TORSDOF 7
ENDMDL
MODEL 6
REMARK VINA RESULT:      -5.9      2.755      5.151
REMARK  7 active torsions:
REMARK  status: ('A' for Active; 'I' for Inactive)
REMARK    1  A    between atoms: C_2  and  C_3 
REMARK    2  A    between atoms: C_3  and  O_6 
REMARK    3  A    between atoms: C_3  and  C_4 
REMARK    4  A    between atoms: C_7  and  O_6 
REMARK    5  A    between atoms: C_9  and  C_10 
REMARK    6  A    between atoms: N_15  and  C_14 
REMARK    7  A    between atoms: N_20  and  C_19 
REMARK       I    between atoms: C_22  and  N_20 
ROOT
ATOM      1  C   LIG d   1       0.019  82.297 111.377  0.00  0.00     0.161 C 
ATOM      2  C   LIG d   1      -1.099  82.083 112.200  0.00  0.00     0.016 C 
ATOM      3  C   LIG d   1      -1.600  80.799 112.513  0.00  0.00     0.038 C 
ATOM      4  C   LIG d   1      -0.921  79.628 112.145  0.00  0.00     0.028 C 
ATOM      5  C   LIG d   1      -0.070  79.790 110.889  0.00  0.00    -0.047 C 
ATOM      6  C   LIG d   1       0.839  81.030 111.056  0.00  0.00     0.091 C 
ENDROOT
BRANCH   1   7
ATOM      7  O   LIG d   1       0.867  83.308 111.957  0.00  0.00    -0.368 OA
BRANCH   7   8
ATOM      8  C   LIG d   1       0.848  84.604 111.309  0.00  0.00     0.119 C 
BRANCH   8   9
ATOM      9  C   LIG d   1      -0.365  84.630 110.360  0.00  0.00     0.028 C 
ATOM     10  C   LIG d   1      -1.126  85.965 110.415  0.00  0.00     0.006 C 
ENDBRANCH   8   9
BRANCH   8  11
ATOM     11  C   LIG d   1       2.072  84.795 110.409  0.00  0.00     0.028 C 
ATOM     12  C   LIG d   1       1.759  84.566 108.922  0.00  0.00     0.006 C 
ENDBRANCH   8  11
ENDBRANCH   7   8
ENDBRANCH   1   7
BRANCH   6  13
ATOM     13  N   LIG d   1       1.643  81.310 109.838  0.00  0.00    -0.311 N 
ATOM     14  C   LIG d   1       2.893  80.881 109.671  0.00  0.00     0.210 C 
ATOM     15  C   LIG d   1       3.549  81.299 108.351  0.00  0.00     0.109 C 
ATOM     16  O   LIG d   1       3.510  80.168 110.476  0.00  0.00    -0.276 OA
ATOM     17  H   LIG d   1       1.209  81.857 109.121  0.00  0.00     0.149 HD
ENDBRANCH   6  13
BRANCH   5  18
ATOM     18  N   LIG d   1       0.687  78.539 110.699  0.00  0.00     0.381 N 
ATOM     19  H   LIG d   1       1.432  78.690 110.048  0.00  0.00    -0.090 HD
ATOM     20  H   LIG d   1       0.072  77.842 110.318  0.00  0.00    -0.090 HD
ATOM     21  H   LIG d   1       1.056  78.228 111.570  0.00  0.00    -0.090 HD
ENDBRANCH   5  18
BRANCH   3  22
ATOM     22  C   LIG d   1      -2.815  80.676 113.170  0.00  0.00     0.382 C 
ATOM     23  O   LIG d   1      -3.844  81.206 112.688  0.00  0.00    -0.241 OA
ATOM     24  O   LIG d   1      -2.886  80.080 114.261  0.00  0.00    -0.241 OA
ENDBRANCH   3  22
TORSDOF 7
ENDMDL
MODEL 7
REMARK VINA RESULT:      -5.6      1.660      2.394
REMARK  7 active torsions:
REMARK  status: ('A' for Active; 'I' for Inactive)
REMARK    1  A    between atoms: C_2  and  C_3 
REMARK    2  A    between atoms: C_3  and  O_6 
REMARK    3  A    between atoms: C_3  and  C_4 
REMARK    4  A    between atoms: C_7  and  O_6 
REMARK    5  A    between atoms: C_9  and  C_10 
REMARK    6  A    between atoms: N_15  and  C_14 
REMARK    7  A    between atoms: N_20  and  C_19 
REMARK       I    between atoms: C_22  and  N_20 
ROOT
ATOM      1  C   LIG d   1       1.440  82.339 110.153  0.00  0.00     0.161 C 
ATOM      2  C   LIG d   1       1.117  83.659 109.797  0.00  0.00     0.016 C 
ATOM      3  C   LIG d   1      -0.001  84.353 110.316  0.00  0.00     0.038 C 
ATOM      4  C   LIG d   1      -0.789  83.823 111.348  0.00  0.00     0.028 C 
ATOM      5  C   LIG d   1      -0.802  82.298 111.379  0.00  0.00    -0.047 C 
ATOM      6  C   LIG d   1       0.656  81.784 111.361  0.00  0.00     0.091 C 
ENDROOT
BRANCH   1   7
ATOM      7  O   LIG d   1       2.859  82.229 110.384  0.00  0.00    -0.368 OA
BRANCH   7   8
ATOM      8  C   LIG d   1       3.712  82.484 109.241  0.00  0.00     0.119 C 
BRANCH   8   9
ATOM      9  C   LIG d   1       4.052  81.123 108.604  0.00  0.00     0.028 C 
ATOM     10  C   LIG d   1       4.338  80.038 109.656  0.00  0.00     0.006 C 
ENDBRANCH   8   9
BRANCH   8  11
ATOM     11  C   LIG d   1       5.057  83.078 109.672  0.00  0.00     0.028 C 
ATOM     12  C   LIG d   1       5.131  83.351 111.182  0.00  0.00     0.006 C 
ENDBRANCH   8  11
ENDBRANCH   7   8
ENDBRANCH   1   7
BRANCH   6  13
ATOM     13  N   LIG d   1       0.733  80.301 111.304  0.00  0.00    -0.311 N 
ATOM     14  C   LIG d   1       0.278  79.582 110.279  0.00  0.00     0.210 C 
ATOM     15  C   LIG d   1       0.438  78.066 110.431  0.00  0.00     0.109 C 
ATOM     16  O   LIG d   1      -0.214  80.057 109.245  0.00  0.00    -0.276 OA
ATOM     17  H   LIG d   1       1.146  79.835 112.088  0.00  0.00     0.149 HD
ENDBRANCH   6  13
BRANCH   5  18
ATOM     18  N   LIG d   1      -1.547  81.882 112.582  0.00  0.00     0.381 N 
ATOM     19  H   LIG d   1      -0.939  81.890 113.376  0.00  0.00    -0.090 HD
ATOM     20  H   LIG d   1      -1.881  80.944 112.450  0.00  0.00    -0.090 HD
ATOM     21  H   LIG d   1      -2.315  82.497 112.737  0.00  0.00    -0.090 HD
ENDBRANCH   5  18
BRANCH   3  22
ATOM     22  C   LIG d   1      -0.362  85.576 109.773  0.00  0.00     0.382 C 
ATOM     23  O   LIG d   1      -1.428  86.132 110.133  0.00  0.00    -0.241 OA
ATOM     24  O   LIG d   1       0.342  86.111 108.896  0.00  0.00    -0.241 OA
ENDBRANCH   3  22
TORSDOF 7
ENDMDL
MODEL 8
REMARK VINA RESULT:      -5.5      2.316      5.607
REMARK  7 active torsions:
REMARK  status: ('A' for Active; 'I' for Inactive)
REMARK    1  A    between atoms: C_2  and  C_3 
REMARK    2  A    between atoms: C_3  and  O_6 
REMARK    3  A    between atoms: C_3  and  C_4 
REMARK    4  A    between atoms: C_7  and  O_6 
REMARK    5  A    between atoms: C_9  and  C_10 
REMARK    6  A    between atoms: N_15  and  C_14 
REMARK    7  A    between atoms: N_20  and  C_19 
REMARK       I    between atoms: C_22  and  N_20 
ROOT
ATOM      1  C   LIG d   1       2.835  82.803 110.657  0.00  0.00     0.161 C 
ATOM      2  C   LIG d   1       2.474  81.664 109.918  0.00  0.00     0.016 C 
ATOM      3  C   LIG d   1       1.841  80.536 110.488  0.00  0.00     0.038 C 
ATOM      4  C   LIG d   1       1.386  80.533 111.815  0.00  0.00     0.028 C 
ATOM      5  C   LIG d   1       2.178  81.461 112.729  0.00  0.00    -0.047 C 
ATOM      6  C   LIG d   1       2.247  82.863 112.082  0.00  0.00     0.091 C 
ENDROOT
BRANCH   1   7
ATOM      7  O   LIG d   1       2.488  83.993 109.921  0.00  0.00    -0.368 OA
BRANCH   7   8
ATOM      8  C   LIG d   1       1.220  83.961 109.220  0.00  0.00     0.119 C 
BRANCH   8   9
ATOM      9  C   LIG d   1       1.477  84.437 107.777  0.00  0.00     0.028 C 
ATOM     10  C   LIG d   1       1.850  83.279 106.835  0.00  0.00     0.006 C 
ENDBRANCH   8   9
BRANCH   8  11
ATOM     11  C   LIG d   1       0.232  84.971 109.810  0.00  0.00     0.028 C 
ATOM     12  C   LIG d   1      -0.797  84.320 110.748  0.00  0.00     0.006 C 
ENDBRANCH   8  11
ENDBRANCH   7   8
ENDBRANCH   1   7
BRANCH   6  13
ATOM     13  N   LIG d   1       3.076  83.811 112.871  0.00  0.00    -0.311 N 
ATOM     14  C   LIG d   1       2.602  84.942 113.391  0.00  0.00     0.210 C 
ATOM     15  C   LIG d   1       3.631  85.785 114.152  0.00  0.00     0.109 C 
ATOM     16  O   LIG d   1       1.420  85.311 113.323  0.00  0.00    -0.276 OA
ATOM     17  H   LIG d   1       4.040  83.575 113.002  0.00  0.00     0.149 HD
ENDBRANCH   6  13
BRANCH   5  18
ATOM     18  N   LIG d   1       1.513  81.465 114.046  0.00  0.00     0.381 N 
ATOM     19  H   LIG d   1       1.692  80.601 114.518  0.00  0.00    -0.090 HD
ATOM     20  H   LIG d   1       0.521  81.549 113.909  0.00  0.00    -0.090 HD
ATOM     21  H   LIG d   1       1.846  82.227 114.595  0.00  0.00    -0.090 HD
ENDBRANCH   5  18
BRANCH   3  22
ATOM     22  C   LIG d   1       1.692  79.379 109.738  0.00  0.00     0.382 C 
ATOM     23  O   LIG d   1       0.636  79.183 109.090  0.00  0.00    -0.241 OA
ATOM     24  O   LIG d   1       2.583  78.508 109.737  0.00  0.00    -0.241 OA
ENDBRANCH   3  22
TORSDOF 7
ENDMDL
MODEL 9
REMARK VINA RESULT:      -5.5      2.367      3.508
REMARK  7 active torsions:
REMARK  status: ('A' for Active; 'I' for Inactive)
REMARK    1  A    between atoms: C_2  and  C_3 
REMARK    2  A    between atoms: C_3  and  O_6 
REMARK    3  A    between atoms: C_3  and  C_4 
REMARK    4  A    between atoms: C_7  and  O_6 
REMARK    5  A    between atoms: C_9  and  C_10 
REMARK    6  A    between atoms: N_15  and  C_14 
REMARK    7  A    between atoms: N_20  and  C_19 
REMARK       I    between atoms: C_22  and  N_20 
ROOT
ATOM      1  C   LIG d   1       1.137  82.938 110.911  0.00  0.00     0.161 C 
ATOM      2  C   LIG d   1       0.163  83.866 110.507  0.00  0.00     0.016 C 
ATOM      3  C   LIG d   1       0.077  85.179 111.025  0.00  0.00     0.038 C 
ATOM      4  C   LIG d   1       1.058  85.705 111.878  0.00  0.00     0.028 C 
ATOM      5  C   LIG d   1       1.776  84.643 112.704  0.00  0.00    -0.047 C 
ATOM      6  C   LIG d   1       2.283  83.530 111.758  0.00  0.00     0.091 C 
ENDROOT
BRANCH   1   7
ATOM      7  O   LIG d   1       1.668  82.254 109.759  0.00  0.00    -0.368 OA
BRANCH   7   8
ATOM      8  C   LIG d   1       2.635  82.990 108.970  0.00  0.00     0.119 C 
BRANCH   8   9
ATOM      9  C   LIG d   1       2.191  82.905 107.497  0.00  0.00     0.028 C 
ATOM     10  C   LIG d   1       1.469  84.180 107.027  0.00  0.00     0.006 C 
ENDBRANCH   8   9
BRANCH   8  11
ATOM     11  C   LIG d   1       4.014  82.325 109.017  0.00  0.00     0.028 C 
ATOM     12  C   LIG d   1       3.939  80.818 109.310  0.00  0.00     0.006 C 
ENDBRANCH   8  11
ENDBRANCH   7   8
ENDBRANCH   1   7
BRANCH   6  13
ATOM     13  N   LIG d   1       2.924  82.410 112.494  0.00  0.00    -0.311 N 
ATOM     14  C   LIG d   1       4.236  82.329 112.709  0.00  0.00     0.210 C 
ATOM     15  C   LIG d   1       4.690  81.080 113.472  0.00  0.00     0.109 C 
ATOM     16  O   LIG d   1       5.062  83.188 112.368  0.00  0.00    -0.276 OA
ATOM     17  H   LIG d   1       2.323  81.684 112.833  0.00  0.00     0.149 HD
ENDBRANCH   6  13
BRANCH   5  18
ATOM     18  N   LIG d   1       2.862  85.313 113.443  0.00  0.00     0.381 N 
ATOM     19  H   LIG d   1       2.901  86.279 113.187  0.00  0.00    -0.090 HD
ATOM     20  H   LIG d   1       3.737  84.885 113.194  0.00  0.00    -0.090 HD
ATOM     21  H   LIG d   1       2.710  85.227 114.424  0.00  0.00    -0.090 HD
ENDBRANCH   5  18
BRANCH   3  22
ATOM     22  C   LIG d   1      -1.023  85.967 110.721  0.00  0.00     0.382 C 
ATOM     23  O   LIG d   1      -1.705  86.475 111.643  0.00  0.00    -0.241 OA
ATOM     24  O   LIG d   1      -1.368  86.139 109.536  0.00  0.00    -0.241 OA
ENDBRANCH   3  22
TORSDOF 7
ENDMDL
