MODEL 1
REMARK VINA RESULT:      -6.6      0.000      0.000
REMARK  7 active torsions:
REMARK  status: ('A' for Active; 'I' for Inactive)
REMARK    1  A    between atoms: C_2  and  C_3 
REMARK    2  A    between atoms: C_3  and  O_6 
REMARK    3  A    between atoms: C_3  and  C_4 
REMARK    4  A    between atoms: C_7  and  O_6 
REMARK    5  A    between atoms: C_9  and  C_10 
REMARK    6  A    between atoms: N_15  and  C_14 
REMARK    7  A    between atoms: N_20  and  C_19 
REMARK       I    between atoms: C_22  and  N_20 
ROOT
ATOM      1  C   LIG d   1       0.672  83.026 111.155  0.00  0.00     0.161 C 
ATOM      2  C   LIG d   1      -0.473  82.983 111.968  0.00  0.00     0.016 C 
ATOM      3  C   LIG d   1      -1.156  81.787 112.288  0.00  0.00     0.038 C 
ATOM      4  C   LIG d   1      -0.648  80.527 111.937  0.00  0.00     0.028 C 
ATOM      5  C   LIG d   1       0.228  80.553 110.689  0.00  0.00    -0.047 C 
ATOM      6  C   LIG d   1       1.304  81.651 110.855  0.00  0.00     0.091 C 
ENDROOT
BRANCH   1   7
ATOM      7  O   LIG d   1       1.650  83.912 111.735  0.00  0.00    -0.368 OA
BRANCH   7   8
ATOM      8  C   LIG d   1       1.840  85.181 111.062  0.00  0.00     0.119 C 
BRANCH   8   9
ATOM      9  C   LIG d   1       1.194  85.067 109.668  0.00  0.00     0.028 C 
ATOM     10  C   LIG d   1       0.334  86.293 109.318  0.00  0.00     0.006 C 
ENDBRANCH   8   9
BRANCH   8  11
ATOM     11  C   LIG d   1       3.324  85.456 110.800  0.00  0.00     0.028 C 
ATOM     12  C   LIG d   1       3.850  86.673 111.576  0.00  0.00     0.006 C 
ENDBRANCH   8  11
ENDBRANCH   7   8
ENDBRANCH   1   7
BRANCH   6  13
ATOM     13  N   LIG d   1       2.152  81.801 109.644  0.00  0.00    -0.311 N 
ATOM     14  C   LIG d   1       3.481  81.884 109.685  0.00  0.00     0.210 C 
ATOM     15  C   LIG d   1       4.160  82.055 108.323  0.00  0.00     0.109 C 
ATOM     16  O   LIG d   1       4.163  81.801 110.717  0.00  0.00    -0.276 OA
ATOM     17  H   LIG d   1       1.682  81.846 108.761  0.00  0.00     0.149 HD
ENDBRANCH   6  13
BRANCH   5  18
ATOM     18  N   LIG d   1       0.800  79.205 110.519  0.00  0.00     0.381 N 
ATOM     19  H   LIG d   1       0.133  78.515 110.802  0.00  0.00    -0.090 HD
ATOM     20  H   LIG d   1       1.611  79.119 111.105  0.00  0.00    -0.090 HD
ATOM     21  H   LIG d   1       1.053  79.060 109.566  0.00  0.00    -0.090 HD
ENDBRANCH   5  18
BRANCH   3  22
ATOM     22  C   LIG d   1      -2.382  81.847 112.932  0.00  0.00     0.382 C 
ATOM     23  O   LIG d   1      -3.352  81.181 112.498  0.00  0.00    -0.241 OA
ATOM     24  O   LIG d   1      -2.543  82.594 113.917  0.00  0.00    -0.241 OA
ENDBRANCH   3  22
TORSDOF 7
ENDMDL
MODEL 2
REMARK VINA RESULT:      -6.3      2.099      5.125
REMARK  7 active torsions:
REMARK  status: ('A' for Active; 'I' for Inactive)
REMARK    1  A    between atoms: C_2  and  C_3 
REMARK    2  A    between atoms: C_3  and  O_6 
REMARK    3  A    between atoms: C_3  and  C_4 
REMARK    4  A    between atoms: C_7  and  O_6 
REMARK    5  A    between atoms: C_9  and  C_10 
REMARK    6  A    between atoms: N_15  and  C_14 
REMARK    7  A    between atoms: N_20  and  C_19 
REMARK       I    between atoms: C_22  and  N_20 
ROOT
ATOM      1  C   LIG d   1       1.340  81.178 111.952  0.00  0.00     0.161 C 
ATOM      2  C   LIG d   1       2.399  81.880 111.351  0.00  0.00     0.016 C 
ATOM      3  C   LIG d   1       2.587  81.956 109.952  0.00  0.00     0.038 C 
ATOM      4  C   LIG d   1       1.637  81.457 109.048  0.00  0.00     0.028 C 
ATOM      5  C   LIG d   1       0.814  80.303 109.609  0.00  0.00    -0.047 C 
ATOM      6  C   LIG d   1       0.233  80.721 110.979  0.00  0.00     0.091 C 
ENDROOT
BRANCH   1   7
ATOM      7  O   LIG d   1       0.776  81.964 113.020  0.00  0.00    -0.368 OA
BRANCH   7   8
ATOM      8  C   LIG d   1       0.867  83.402 112.869  0.00  0.00     0.119 C 
BRANCH   8   9
ATOM      9  C   LIG d   1       1.084  84.002 114.272  0.00  0.00     0.028 C 
ATOM     10  C   LIG d   1       1.624  85.441 114.218  0.00  0.00     0.006 C 
ENDBRANCH   8   9
BRANCH   8  11
ATOM     11  C   LIG d   1      -0.456  83.995 112.375  0.00  0.00     0.028 C 
ATOM     12  C   LIG d   1      -0.395  84.447 110.907  0.00  0.00     0.006 C 
ENDBRANCH   8  11
ENDBRANCH   7   8
ENDBRANCH   1   7
BRANCH   6  13
ATOM     13  N   LIG d   1      -0.517  79.620 111.637  0.00  0.00    -0.311 N 
ATOM     14  C   LIG d   1      -1.714  79.781 112.199  0.00  0.00     0.210 C 
ATOM     15  C   LIG d   1      -2.302  78.520 112.840  0.00  0.00     0.109 C 
ATOM     16  O   LIG d   1      -2.358  80.841 112.201  0.00  0.00    -0.276 OA
ATOM     17  H   LIG d   1      -0.082  78.718 111.654  0.00  0.00     0.149 HD
ENDBRANCH   6  13
BRANCH   5  18
ATOM     18  N   LIG d   1      -0.226  79.973 108.616  0.00  0.00     0.381 N 
ATOM     19  H   LIG d   1       0.143  79.338 107.937  0.00  0.00    -0.090 HD
ATOM     20  H   LIG d   1      -0.503  80.815 108.143  0.00  0.00    -0.090 HD
ATOM     21  H   LIG d   1      -1.013  79.565 109.070  0.00  0.00    -0.090 HD
ENDBRANCH   5  18
BRANCH   3  22
ATOM     22  C   LIG d   1       3.756  82.501 109.444  0.00  0.00     0.382 C 
ATOM     23  O   LIG d   1       3.878  82.686 108.209  0.00  0.00    -0.241 OA
ATOM     24  O   LIG d   1       4.708  82.771 110.201  0.00  0.00    -0.241 OA
ENDBRANCH   3  22
TORSDOF 7
ENDMDL
MODEL 3
REMARK VINA RESULT:      -6.2      1.681      4.912
REMARK  7 active torsions:
REMARK  status: ('A' for Active; 'I' for Inactive)
REMARK    1  A    between atoms: C_2  and  C_3 
REMARK    2  A    between atoms: C_3  and  O_6 
REMARK    3  A    between atoms: C_3  and  C_4 
REMARK    4  A    between atoms: C_7  and  O_6 
REMARK    5  A    between atoms: C_9  and  C_10 
REMARK    6  A    between atoms: N_15  and  C_14 
REMARK    7  A    between atoms: N_20  and  C_19 
REMARK       I    between atoms: C_22  and  N_20 
ROOT
ATOM      1  C   LIG d   1       1.441  83.405 111.415  0.00  0.00     0.161 C 
ATOM      2  C   LIG d   1       2.330  83.273 110.335  0.00  0.00     0.016 C 
ATOM      3  C   LIG d   1       2.311  82.178 109.441  0.00  0.00     0.038 C 
ATOM      4  C   LIG d   1       1.297  81.210 109.476  0.00  0.00     0.028 C 
ATOM      5  C   LIG d   1       0.678  81.031 110.858  0.00  0.00    -0.047 C 
ATOM      6  C   LIG d   1       0.258  82.415 111.403  0.00  0.00     0.091 C 
ENDROOT
BRANCH   1   7
ATOM      7  O   LIG d   1       0.959  84.761 111.488  0.00  0.00    -0.368 OA
BRANCH   7   8
ATOM      8  C   LIG d   1       1.627  85.722 110.634  0.00  0.00     0.119 C 
BRANCH   8   9
ATOM      9  C   LIG d   1       2.200  86.828 111.541  0.00  0.00     0.028 C 
ATOM     10  C   LIG d   1       3.738  86.831 111.564  0.00  0.00     0.006 C 
ENDBRANCH   8   9
BRANCH   8  11
ATOM     11  C   LIG d   1       0.634  86.431 109.709  0.00  0.00     0.028 C 
ATOM     12  C   LIG d   1      -0.800  86.430 110.262  0.00  0.00     0.006 C 
ENDBRANCH   8  11
ENDBRANCH   7   8
ENDBRANCH   1   7
BRANCH   6  13
ATOM     13  N   LIG d   1      -0.280  82.340 112.787  0.00  0.00    -0.311 N 
ATOM     14  C   LIG d   1      -1.566  82.129 113.063  0.00  0.00     0.210 C 
ATOM     15  C   LIG d   1      -1.912  82.108 114.555  0.00  0.00     0.109 C 
ATOM     16  O   LIG d   1      -2.447  81.925 112.214  0.00  0.00    -0.276 OA
ATOM     17  H   LIG d   1       0.372  82.464 113.537  0.00  0.00     0.149 HD
ENDBRANCH   6  13
BRANCH   5  18
ATOM     18  N   LIG d   1      -0.454  80.095 110.722  0.00  0.00     0.381 N 
ATOM     19  H   LIG d   1      -1.214  80.548 110.255  0.00  0.00    -0.090 HD
ATOM     20  H   LIG d   1      -0.764  79.824 111.639  0.00  0.00    -0.090 HD
ATOM     21  H   LIG d   1      -0.171  79.290 110.208  0.00  0.00    -0.090 HD
ENDBRANCH   5  18
BRANCH   3  22
ATOM     22  C   LIG d   1       3.338  82.023 108.522  0.00  0.00     0.382 C 
ATOM     23  O   LIG d   1       4.403  81.453 108.862  0.00  0.00    -0.241 OA
ATOM     24  O   LIG d   1       3.231  82.486 107.371  0.00  0.00    -0.241 OA
ENDBRANCH   3  22
TORSDOF 7
ENDMDL
MODEL 4
REMARK VINA RESULT:      -6.1      2.490      4.255
REMARK  7 active torsions:
REMARK  status: ('A' for Active; 'I' for Inactive)
REMARK    1  A    between atoms: C_2  and  C_3 
REMARK    2  A    between atoms: C_3  and  O_6 
REMARK    3  A    between atoms: C_3  and  C_4 
REMARK    4  A    between atoms: C_7  and  O_6 
REMARK    5  A    between atoms: C_9  and  C_10 
REMARK    6  A    between atoms: N_15  and  C_14 
REMARK    7  A    between atoms: N_20  and  C_19 
REMARK       I    between atoms: C_22  and  N_20 
ROOT
ATOM      1  C   LIG d   1       1.728  83.793 111.212  0.00  0.00     0.161 C 
ATOM      2  C   LIG d   1       0.632  82.920 111.318  0.00  0.00     0.016 C 
ATOM      3  C   LIG d   1      -0.467  83.151 112.177  0.00  0.00     0.038 C 
ATOM      4  C   LIG d   1      -0.617  84.355 112.882  0.00  0.00     0.028 C 
ATOM      5  C   LIG d   1       0.708  85.043 113.194  0.00  0.00    -0.047 C 
ATOM      6  C   LIG d   1       1.529  85.165 111.890  0.00  0.00     0.091 C 
ENDROOT
BRANCH   1   7
ATOM      7  O   LIG d   1       2.082  83.966 109.826  0.00  0.00    -0.368 OA
BRANCH   7   8
ATOM      8  C   LIG d   1       3.384  83.465 109.434  0.00  0.00     0.119 C 
BRANCH   8   9
ATOM      9  C   LIG d   1       3.229  82.804 108.051  0.00  0.00     0.028 C 
ATOM     10  C   LIG d   1       1.885  83.144 107.385  0.00  0.00     0.006 C 
ENDBRANCH   8   9
BRANCH   8  11
ATOM     11  C   LIG d   1       3.855  82.347 110.368  0.00  0.00     0.028 C 
ATOM     12  C   LIG d   1       4.031  81.001 109.645  0.00  0.00     0.006 C 
ENDBRANCH   8  11
ENDBRANCH   7   8
ENDBRANCH   1   7
BRANCH   6  13
ATOM     13  N   LIG d   1       2.875  85.752 112.120  0.00  0.00    -0.311 N 
ATOM     14  C   LIG d   1       3.143  87.049 111.978  0.00  0.00     0.210 C 
ATOM     15  C   LIG d   1       4.600  87.441 112.245  0.00  0.00     0.109 C 
ATOM     16  O   LIG d   1       2.306  87.917 111.688  0.00  0.00    -0.276 OA
ATOM     17  H   LIG d   1       3.606  85.124 112.390  0.00  0.00     0.149 HD
ENDBRANCH   6  13
BRANCH   5  18
ATOM     18  N   LIG d   1       0.398  86.349 113.806  0.00  0.00     0.381 N 
ATOM     19  H   LIG d   1       1.101  86.583 114.479  0.00  0.00    -0.090 HD
ATOM     20  H   LIG d   1      -0.485  86.284 114.282  0.00  0.00    -0.090 HD
ATOM     21  H   LIG d   1       0.354  87.053 113.103  0.00  0.00    -0.090 HD
ENDBRANCH   5  18
BRANCH   3  22
ATOM     22  C   LIG d   1      -1.411  82.154 112.369  0.00  0.00     0.382 C 
ATOM     23  O   LIG d   1      -2.434  82.383 113.058  0.00  0.00    -0.241 OA
ATOM     24  O   LIG d   1      -1.231  81.015 111.898  0.00  0.00    -0.241 OA
ENDBRANCH   3  22
TORSDOF 7
ENDMDL
MODEL 5
REMARK VINA RESULT:      -5.9      2.096      4.752
REMARK  7 active torsions:
REMARK  status: ('A' for Active; 'I' for Inactive)
REMARK    1  A    between atoms: C_2  and  C_3 
REMARK    2  A    between atoms: C_3  and  O_6 
REMARK    3  A    between atoms: C_3  and  C_4 
REMARK    4  A    between atoms: C_7  and  O_6 
REMARK    5  A    between atoms: C_9  and  C_10 
REMARK    6  A    between atoms: N_15  and  C_14 
REMARK    7  A    between atoms: N_20  and  C_19 
REMARK       I    between atoms: C_22  and  N_20 
ROOT
ATOM      1  C   LIG d   1       0.525  82.984 110.873  0.00  0.00     0.161 C 
ATOM      2  C   LIG d   1       1.236  83.310 109.706  0.00  0.00     0.016 C 
ATOM      3  C   LIG d   1       1.758  82.344 108.816  0.00  0.00     0.038 C 
ATOM      4  C   LIG d   1       1.471  80.977 108.954  0.00  0.00     0.028 C 
ATOM      5  C   LIG d   1       1.183  80.562 110.393  0.00  0.00    -0.047 C 
ATOM      6  C   LIG d   1       0.107  81.502 110.982  0.00  0.00     0.091 C 
ENDROOT
BRANCH   1   7
ATOM      7  O   LIG d   1      -0.627  83.840 110.999  0.00  0.00    -0.368 OA
BRANCH   7   8
ATOM      8  C   LIG d   1      -0.546  84.873 112.011  0.00  0.00     0.119 C 
BRANCH   8   9
ATOM      9  C   LIG d   1      -0.108  86.174 111.311  0.00  0.00     0.028 C 
ATOM     10  C   LIG d   1      -0.867  86.417 109.996  0.00  0.00     0.006 C 
ENDBRANCH   8   9
BRANCH   8  11
ATOM     11  C   LIG d   1       0.557  84.570 113.030  0.00  0.00     0.028 C 
ATOM     12  C   LIG d   1       1.546  85.733 113.202  0.00  0.00     0.006 C 
ENDBRANCH   8  11
ENDBRANCH   7   8
ENDBRANCH   1   7
BRANCH   6  13
ATOM     13  N   LIG d   1      -0.173  81.218 112.413  0.00  0.00    -0.311 N 
ATOM     14  C   LIG d   1      -1.328  80.720 112.850  0.00  0.00     0.210 C 
ATOM     15  C   LIG d   1      -1.415  80.521 114.366  0.00  0.00     0.109 C 
ATOM     16  O   LIG d   1      -2.278  80.393 112.121  0.00  0.00    -0.276 OA
ATOM     17  H   LIG d   1       0.555  81.424 113.070  0.00  0.00     0.149 HD
ENDBRANCH   6  13
BRANCH   5  18
ATOM     18  N   LIG d   1       0.766  79.147 110.373  0.00  0.00     0.381 N 
ATOM     19  H   LIG d   1       0.135  78.990 109.613  0.00  0.00    -0.090 HD
ATOM     20  H   LIG d   1       0.286  78.937 111.230  0.00  0.00    -0.090 HD
ATOM     21  H   LIG d   1       1.564  78.557 110.279  0.00  0.00    -0.090 HD
ENDBRANCH   5  18
BRANCH   3  22
ATOM     22  C   LIG d   1       2.609  82.738 107.795  0.00  0.00     0.382 C 
ATOM     23  O   LIG d   1       3.852  82.674 107.956  0.00  0.00    -0.241 OA
ATOM     24  O   LIG d   1       2.151  83.199 106.733  0.00  0.00    -0.241 OA
ENDBRANCH   3  22
TORSDOF 7
ENDMDL
MODEL 6
REMARK VINA RESULT:      -5.6      2.350      5.008
REMARK  7 active torsions:
REMARK  status: ('A' for Active; 'I' for Inactive)
REMARK    1  A    between atoms: C_2  and  C_3 
REMARK    2  A    between atoms: C_3  and  O_6 
REMARK    3  A    between atoms: C_3  and  C_4 
REMARK    4  A    between atoms: C_7  and  O_6 
REMARK    5  A    between atoms: C_9  and  C_10 
REMARK    6  A    between atoms: N_15  and  C_14 
REMARK    7  A    between atoms: N_20  and  C_19 
REMARK       I    between atoms: C_22  and  N_20 
ROOT
ATOM      1  C   LIG d   1       0.445  83.087 111.430  0.00  0.00     0.161 C 
ATOM      2  C   LIG d   1       0.222  84.462 111.613  0.00  0.00     0.016 C 
ATOM      3  C   LIG d   1       0.428  85.426 110.599  0.00  0.00     0.038 C 
ATOM      4  C   LIG d   1       0.728  85.060 109.278  0.00  0.00     0.028 C 
ATOM      5  C   LIG d   1       1.454  83.724 109.170  0.00  0.00    -0.047 C 
ATOM      6  C   LIG d   1       0.665  82.658 109.964  0.00  0.00     0.091 C 
ENDROOT
BRANCH   1   7
ATOM      7  O   LIG d   1      -0.636  82.335 112.015  0.00  0.00    -0.368 OA
BRANCH   7   8
ATOM      8  C   LIG d   1      -0.267  81.388 113.048  0.00  0.00     0.119 C 
BRANCH   8   9
ATOM      9  C   LIG d   1      -0.796  80.006 112.619  0.00  0.00     0.028 C 
ATOM     10  C   LIG d   1      -2.328  79.978 112.488  0.00  0.00     0.006 C 
ENDBRANCH   8   9
BRANCH   8  11
ATOM     11  C   LIG d   1      -0.975  81.700 114.370  0.00  0.00     0.028 C 
ATOM     12  C   LIG d   1      -1.578  83.113 114.403  0.00  0.00     0.006 C 
ENDBRANCH   8  11
ENDBRANCH   7   8
ENDBRANCH   1   7
BRANCH   6  13
ATOM     13  N   LIG d   1       1.352  81.340 109.981  0.00  0.00    -0.311 N 
ATOM     14  C   LIG d   1       0.828  80.233 109.456  0.00  0.00     0.210 C 
ATOM     15  C   LIG d   1       1.693  78.977 109.598  0.00  0.00     0.109 C 
ATOM     16  O   LIG d   1      -0.258  80.180 108.858  0.00  0.00    -0.276 OA
ATOM     17  H   LIG d   1       2.252  81.299 110.419  0.00  0.00     0.149 HD
ENDBRANCH   6  13
BRANCH   5  18
ATOM     18  N   LIG d   1       1.582  83.400 107.737  0.00  0.00     0.381 N 
ATOM     19  H   LIG d   1       2.192  82.616 107.619  0.00  0.00    -0.090 HD
ATOM     20  H   LIG d   1       1.985  84.187 107.260  0.00  0.00    -0.090 HD
ATOM     21  H   LIG d   1       0.686  83.194 107.353  0.00  0.00    -0.090 HD
ENDBRANCH   5  18
BRANCH   3  22
ATOM     22  C   LIG d   1       0.372  86.776 110.912  0.00  0.00     0.382 C 
ATOM     23  O   LIG d   1       1.429  87.451 110.965  0.00  0.00    -0.241 OA
ATOM     24  O   LIG d   1      -0.716  87.316 111.186  0.00  0.00    -0.241 OA
ENDBRANCH   3  22
TORSDOF 7
ENDMDL
MODEL 7
REMARK VINA RESULT:      -5.4      2.294      5.170
REMARK  7 active torsions:
REMARK  status: ('A' for Active; 'I' for Inactive)
REMARK    1  A    between atoms: C_2  and  C_3 
REMARK    2  A    between atoms: C_3  and  O_6 
REMARK    3  A    between atoms: C_3  and  C_4 
REMARK    4  A    between atoms: C_7  and  O_6 
REMARK    5  A    between atoms: C_9  and  C_10 
REMARK    6  A    between atoms: N_15  and  C_14 
REMARK    7  A    between atoms: N_20  and  C_19 
REMARK       I    between atoms: C_22  and  N_20 
ROOT
ATOM      1  C   LIG d   1       2.626  83.388 112.105  0.00  0.00     0.161 C 
ATOM      2  C   LIG d   1       2.886  84.752 112.320  0.00  0.00     0.016 C 
ATOM      3  C   LIG d   1       2.672  85.749 111.341  0.00  0.00     0.038 C 
ATOM      4  C   LIG d   1       2.036  85.467 110.123  0.00  0.00     0.028 C 
ATOM      5  C   LIG d   1       2.219  84.025 109.664  0.00  0.00    -0.047 C 
ATOM      6  C   LIG d   1       1.829  83.077 110.821  0.00  0.00     0.091 C 
ENDROOT
BRANCH   1   7
ATOM      7  O   LIG d   1       1.962  82.829 113.255  0.00  0.00    -0.368 OA
BRANCH   7   8
ATOM      8  C   LIG d   1       0.535  83.065 113.344  0.00  0.00     0.119 C 
BRANCH   8   9
ATOM      9  C   LIG d   1       0.326  84.331 114.196  0.00  0.00     0.028 C 
ATOM     10  C   LIG d   1      -0.537  85.384 113.481  0.00  0.00     0.006 C 
ENDBRANCH   8   9
BRANCH   8  11
ATOM     11  C   LIG d   1      -0.169  81.940 114.109  0.00  0.00     0.028 C 
ATOM     12  C   LIG d   1      -0.082  80.584 113.391  0.00  0.00     0.006 C 
ENDBRANCH   8  11
ENDBRANCH   7   8
ENDBRANCH   1   7
BRANCH   6  13
ATOM     13  N   LIG d   1       2.058  81.647 110.485  0.00  0.00    -0.311 N 
ATOM     14  C   LIG d   1       1.100  80.837 110.036  0.00  0.00     0.210 C 
ATOM     15  C   LIG d   1       1.545  79.396 109.769  0.00  0.00     0.109 C 
ATOM     16  O   LIG d   1      -0.067  81.184 109.803  0.00  0.00    -0.276 OA
ATOM     17  H   LIG d   1       2.984  81.291 110.614  0.00  0.00     0.149 HD
ENDBRANCH   6  13
BRANCH   5  18
ATOM     18  N   LIG d   1       1.393  83.833 108.456  0.00  0.00     0.381 N 
ATOM     19  H   LIG d   1       1.936  84.031 107.640  0.00  0.00    -0.090 HD
ATOM     20  H   LIG d   1       0.622  84.476 108.485  0.00  0.00    -0.090 HD
ATOM     21  H   LIG d   1       1.054  82.897 108.420  0.00  0.00    -0.090 HD
ENDBRANCH   5  18
BRANCH   3  22
ATOM     22  C   LIG d   1       3.132  87.038 111.562  0.00  0.00     0.382 C 
ATOM     23  O   LIG d   1       4.365  87.261 111.626  0.00  0.00    -0.241 OA
ATOM     24  O   LIG d   1       2.329  87.974 111.741  0.00  0.00    -0.241 OA
ENDBRANCH   3  22
TORSDOF 7
ENDMDL
MODEL 8
REMARK VINA RESULT:      -5.4      2.499      5.068
REMARK  7 active torsions:
REMARK  status: ('A' for Active; 'I' for Inactive)
REMARK    1  A    between atoms: C_2  and  C_3 
REMARK    2  A    between atoms: C_3  and  O_6 
REMARK    3  A    between atoms: C_3  and  C_4 
REMARK    4  A    between atoms: C_7  and  O_6 
REMARK    5  A    between atoms: C_9  and  C_10 
REMARK    6  A    between atoms: N_15  and  C_14 
REMARK    7  A    between atoms: N_20  and  C_19 
REMARK       I    between atoms: C_22  and  N_20 
ROOT
ATOM      1  C   LIG d   1       0.479  82.920 110.828  0.00  0.00     0.161 C 
ATOM      2  C   LIG d   1       0.301  84.187 110.249  0.00  0.00     0.016 C 
ATOM      3  C   LIG d   1      -0.281  85.280 110.931  0.00  0.00     0.038 C 
ATOM      4  C   LIG d   1      -0.590  85.221 112.298  0.00  0.00     0.028 C 
ATOM      5  C   LIG d   1      -0.895  83.810 112.790  0.00  0.00    -0.047 C 
ATOM      6  C   LIG d   1       0.250  82.868 112.353  0.00  0.00     0.091 C 
ENDROOT
BRANCH   1   7
ATOM      7  O   LIG d   1       1.787  82.412 110.500  0.00  0.00    -0.368 OA
BRANCH   7   8
ATOM      8  C   LIG d   1       1.877  81.613 109.295  0.00  0.00     0.119 C 
BRANCH   8   9
ATOM      9  C   LIG d   1       2.312  80.194 109.711  0.00  0.00     0.028 C 
ATOM     10  C   LIG d   1       1.527  79.099 108.969  0.00  0.00     0.006 C 
ENDBRANCH   8   9
BRANCH   8  11
ATOM     11  C   LIG d   1       2.987  82.122 108.370  0.00  0.00     0.028 C 
ATOM     12  C   LIG d   1       4.395  81.831 108.913  0.00  0.00     0.006 C 
ENDBRANCH   8  11
ENDBRANCH   7   8
ENDBRANCH   1   7
BRANCH   6  13
ATOM     13  N   LIG d   1      -0.010  81.452 112.721  0.00  0.00    -0.311 N 
ATOM     14  C   LIG d   1      -1.207  80.876 112.622  0.00  0.00     0.210 C 
ATOM     15  C   LIG d   1      -1.261  79.413 113.072  0.00  0.00     0.109 C 
ATOM     16  O   LIG d   1      -2.223  81.429 112.173  0.00  0.00    -0.276 OA
ATOM     17  H   LIG d   1       0.765  80.920 113.065  0.00  0.00     0.149 HD
ENDBRANCH   6  13
BRANCH   5  18
ATOM     18  N   LIG d   1      -1.064  83.875 114.254  0.00  0.00     0.381 N 
ATOM     19  H   LIG d   1      -0.467  83.203 114.693  0.00  0.00    -0.090 HD
ATOM     20  H   LIG d   1      -2.016  83.648 114.481  0.00  0.00    -0.090 HD
ATOM     21  H   LIG d   1      -0.845  84.790 114.582  0.00  0.00    -0.090 HD
ENDBRANCH   5  18
BRANCH   3  22
ATOM     22  C   LIG d   1      -0.597  86.436 110.233  0.00  0.00     0.382 C 
ATOM     23  O   LIG d   1      -0.038  86.679 109.137  0.00  0.00    -0.241 OA
ATOM     24  O   LIG d   1      -1.402  87.260 110.708  0.00  0.00    -0.241 OA
ENDBRANCH   3  22
TORSDOF 7
ENDMDL
MODEL 9
REMARK VINA RESULT:      -5.2      2.346      4.489
REMARK  7 active torsions:
REMARK  status: ('A' for Active; 'I' for Inactive)
REMARK    1  A    between atoms: C_2  and  C_3 
REMARK    2  A    between atoms: C_3  and  O_6 
REMARK    3  A    between atoms: C_3  and  C_4 
REMARK    4  A    between atoms: C_7  and  O_6 
REMARK    5  A    between atoms: C_9  and  C_10 
REMARK    6  A    between atoms: N_15  and  C_14 
REMARK    7  A    between atoms: N_20  and  C_19 
REMARK       I    between atoms: C_22  and  N_20 
ROOT
ATOM      1  C   LIG d   1       1.672  83.467 112.267  0.00  0.00     0.161 C 
ATOM      2  C   LIG d   1       0.850  84.171 113.163  0.00  0.00     0.016 C 
ATOM      3  C   LIG d   1       0.121  85.328 112.807  0.00  0.00     0.038 C 
ATOM      4  C   LIG d   1       0.044  85.776 111.480  0.00  0.00     0.028 C 
ATOM      5  C   LIG d   1       1.259  85.394 110.640  0.00  0.00    -0.047 C 
ATOM      6  C   LIG d   1       1.513  83.877 110.787  0.00  0.00     0.091 C 
ENDROOT
BRANCH   1   7
ATOM      7  O   LIG d   1       1.461  82.050 112.420  0.00  0.00    -0.368 OA
BRANCH   7   8
ATOM      8  C   LIG d   1       0.230  81.525 111.863  0.00  0.00     0.119 C 
BRANCH   8   9
ATOM      9  C   LIG d   1      -0.673  81.113 113.042  0.00  0.00     0.028 C 
ATOM     10  C   LIG d   1      -2.120  81.605 112.872  0.00  0.00     0.006 C 
ENDBRANCH   8   9
BRANCH   8  11
ATOM     11  C   LIG d   1       0.481  80.236 111.075  0.00  0.00     0.028 C 
ATOM     12  C   LIG d   1       0.447  80.452 109.553  0.00  0.00     0.006 C 
ENDBRANCH   8  11
ENDBRANCH   7   8
ENDBRANCH   1   7
BRANCH   6  13
ATOM     13  N   LIG d   1       2.734  83.434 110.065  0.00  0.00    -0.311 N 
ATOM     14  C   LIG d   1       2.746  83.117 108.771  0.00  0.00     0.210 C 
ATOM     15  C   LIG d   1       4.106  82.666 108.229  0.00  0.00     0.109 C 
ATOM     16  O   LIG d   1       1.767  83.198 108.014  0.00  0.00    -0.276 OA
ATOM     17  H   LIG d   1       3.581  83.370 110.596  0.00  0.00     0.149 HD
ENDBRANCH   6  13
BRANCH   5  18
ATOM     18  N   LIG d   1       0.985  85.802 109.249  0.00  0.00     0.381 N 
ATOM     19  H   LIG d   1       1.840  86.060 108.798  0.00  0.00    -0.090 HD
ATOM     20  H   LIG d   1       0.379  86.604 109.259  0.00  0.00    -0.090 HD
ATOM     21  H   LIG d   1       0.552  85.055 108.753  0.00  0.00    -0.090 HD
ENDBRANCH   5  18
BRANCH   3  22
ATOM     22  C   LIG d   1      -0.510  86.073 113.791  0.00  0.00     0.382 C 
ATOM     23  O   LIG d   1      -1.761  86.051 113.889  0.00  0.00    -0.241 OA
ATOM     24  O   LIG d   1       0.152  86.802 114.554  0.00  0.00    -0.241 OA
ENDBRANCH   3  22
TORSDOF 7
ENDMDL
