MODEL 1
REMARK VINA RESULT:      -6.4      0.000      0.000
REMARK  7 active torsions:
REMARK  status: ('A' for Active; 'I' for Inactive)
REMARK    1  A    between atoms: C_2  and  C_3 
REMARK    2  A    between atoms: C_3  and  O_6 
REMARK    3  A    between atoms: C_3  and  C_4 
REMARK    4  A    between atoms: C_7  and  O_6 
REMARK    5  A    between atoms: C_9  and  C_10 
REMARK    6  A    between atoms: N_15  and  C_14 
REMARK    7  A    between atoms: N_20  and  C_19 
REMARK       I    between atoms: C_22  and  N_20 
ROOT
ATOM      1  C   LIG d   1       1.676  82.923 111.903  0.00  0.00     0.161 C 
ATOM      2  C   LIG d   1       2.690  82.933 110.931  0.00  0.00     0.016 C 
ATOM      3  C   LIG d   1       2.758  82.002 109.868  0.00  0.00     0.038 C 
ATOM      4  C   LIG d   1       1.727  81.085 109.618  0.00  0.00     0.028 C 
ATOM      5  C   LIG d   1       0.936  80.707 110.866  0.00  0.00    -0.047 C 
ATOM      6  C   LIG d   1       0.481  82.000 111.582  0.00  0.00     0.091 C 
ENDROOT
BRANCH   1   7
ATOM      7  O   LIG d   1       1.218  84.268 112.146  0.00  0.00    -0.368 OA
BRANCH   7   8
ATOM      8  C   LIG d   1       0.118  84.726 111.321  0.00  0.00     0.119 C 
BRANCH   8   9
ATOM      9  C   LIG d   1       0.688  85.741 110.312  0.00  0.00     0.028 C 
ATOM     10  C   LIG d   1       0.671  85.207 108.869  0.00  0.00     0.006 C 
ENDBRANCH   8   9
BRANCH   8  11
ATOM     11  C   LIG d   1      -0.909  85.506 112.146  0.00  0.00     0.028 C 
ATOM     12  C   LIG d   1      -0.778  85.252 113.656  0.00  0.00     0.006 C 
ENDBRANCH   8  11
ENDBRANCH   7   8
ENDBRANCH   1   7
BRANCH   6  13
ATOM     13  N   LIG d   1      -0.227  81.721 112.859  0.00  0.00    -0.311 N 
ATOM     14  C   LIG d   1      -1.554  81.677 112.967  0.00  0.00     0.210 C 
ATOM     15  C   LIG d   1      -2.079  81.395 114.378  0.00  0.00     0.109 C 
ATOM     16  O   LIG d   1      -2.345  81.814 112.021  0.00  0.00    -0.276 OA
ATOM     17  H   LIG d   1       0.339  81.567 113.670  0.00  0.00     0.149 HD
ENDBRANCH   6  13
BRANCH   5  18
ATOM     18  N   LIG d   1      -0.190  79.856 110.440  0.00  0.00     0.381 N 
ATOM     19  H   LIG d   1      -0.031  79.525 109.509  0.00  0.00    -0.090 HD
ATOM     20  H   LIG d   1      -1.032  80.406 110.439  0.00  0.00    -0.090 HD
ATOM     21  H   LIG d   1      -0.290  79.084 111.062  0.00  0.00    -0.090 HD
ENDBRANCH   5  18
BRANCH   3  22
ATOM     22  C   LIG d   1       3.889  81.957 109.067  0.00  0.00     0.382 C 
ATOM     23  O   LIG d   1       4.682  82.929 109.045  0.00  0.00    -0.241 OA
ATOM     24  O   LIG d   1       4.102  80.975 108.331  0.00  0.00    -0.241 OA
ENDBRANCH   3  22
TORSDOF 7
ENDMDL
MODEL 2
REMARK VINA RESULT:      -6.3      1.697      4.915
REMARK  7 active torsions:
REMARK  status: ('A' for Active; 'I' for Inactive)
REMARK    1  A    between atoms: C_2  and  C_3 
REMARK    2  A    between atoms: C_3  and  O_6 
REMARK    3  A    between atoms: C_3  and  C_4 
REMARK    4  A    between atoms: C_7  and  O_6 
REMARK    5  A    between atoms: C_9  and  C_10 
REMARK    6  A    between atoms: N_15  and  C_14 
REMARK    7  A    between atoms: N_20  and  C_19 
REMARK       I    between atoms: C_22  and  N_20 
ROOT
ATOM      1  C   LIG d   1       0.124  82.824 111.293  0.00  0.00     0.161 C 
ATOM      2  C   LIG d   1      -0.974  82.525 112.116  0.00  0.00     0.016 C 
ATOM      3  C   LIG d   1      -1.496  81.221 112.275  0.00  0.00     0.038 C 
ATOM      4  C   LIG d   1      -0.856  80.096 111.735  0.00  0.00     0.028 C 
ATOM      5  C   LIG d   1      -0.039  80.405 110.485  0.00  0.00    -0.047 C 
ATOM      6  C   LIG d   1       0.904  81.593 110.783  0.00  0.00     0.091 C 
ENDROOT
BRANCH   1   7
ATOM      7  O   LIG d   1       1.012  83.733 111.973  0.00  0.00    -0.368 OA
BRANCH   7   8
ATOM      8  C   LIG d   1       1.059  85.085 111.454  0.00  0.00     0.119 C 
BRANCH   8   9
ATOM      9  C   LIG d   1       0.020  85.183 110.321  0.00  0.00     0.028 C 
ATOM     10  C   LIG d   1       0.670  85.397 108.944  0.00  0.00     0.006 C 
ENDBRANCH   8   9
BRANCH   8  11
ATOM     11  C   LIG d   1       2.409  85.381 110.793  0.00  0.00     0.028 C 
ATOM     12  C   LIG d   1       3.604  84.964 111.664  0.00  0.00     0.006 C 
ENDBRANCH   8  11
ENDBRANCH   7   8
ENDBRANCH   1   7
BRANCH   6  13
ATOM     13  N   LIG d   1       1.679  82.016 109.588  0.00  0.00    -0.311 N 
ATOM     14  C   LIG d   1       3.010  82.005 109.536  0.00  0.00     0.210 C 
ATOM     15  C   LIG d   1       3.609  82.499 108.215  0.00  0.00     0.109 C 
ATOM     16  O   LIG d   1       3.750  81.603 110.446  0.00  0.00    -0.276 OA
ATOM     17  H   LIG d   1       1.157  82.327 108.792  0.00  0.00     0.149 HD
ENDBRANCH   6  13
BRANCH   5  18
ATOM     18  N   LIG d   1       0.683  79.175 110.109  0.00  0.00     0.381 N 
ATOM     19  H   LIG d   1       0.046  78.404 110.078  0.00  0.00    -0.090 HD
ATOM     20  H   LIG d   1       1.380  78.980 110.807  0.00  0.00    -0.090 HD
ATOM     21  H   LIG d   1       1.117  79.293 109.220  0.00  0.00    -0.090 HD
ENDBRANCH   5  18
BRANCH   3  22
ATOM     22  C   LIG d   1      -2.694  81.037 112.949  0.00  0.00     0.382 C 
ATOM     23  O   LIG d   1      -3.361  79.991 112.766  0.00  0.00    -0.241 OA
ATOM     24  O   LIG d   1      -3.137  81.924 113.703  0.00  0.00    -0.241 OA
ENDBRANCH   3  22
TORSDOF 7
ENDMDL
MODEL 3
REMARK VINA RESULT:      -6.1      2.410      5.363
REMARK  7 active torsions:
REMARK  status: ('A' for Active; 'I' for Inactive)
REMARK    1  A    between atoms: C_2  and  C_3 
REMARK    2  A    between atoms: C_3  and  O_6 
REMARK    3  A    between atoms: C_3  and  C_4 
REMARK    4  A    between atoms: C_7  and  O_6 
REMARK    5  A    between atoms: C_9  and  C_10 
REMARK    6  A    between atoms: N_15  and  C_14 
REMARK    7  A    between atoms: N_20  and  C_19 
REMARK       I    between atoms: C_22  and  N_20 
ROOT
ATOM      1  C   LIG d   1       1.898  81.951 112.014  0.00  0.00     0.161 C 
ATOM      2  C   LIG d   1       0.966  80.900 111.985  0.00  0.00     0.016 C 
ATOM      3  C   LIG d   1      -0.433  81.100 112.024  0.00  0.00     0.038 C 
ATOM      4  C   LIG d   1      -1.002  82.380 111.943  0.00  0.00     0.028 C 
ATOM      5  C   LIG d   1      -0.094  83.482 112.480  0.00  0.00    -0.047 C 
ATOM      6  C   LIG d   1       1.295  83.357 111.813  0.00  0.00     0.091 C 
ENDROOT
BRANCH   1   7
ATOM      7  O   LIG d   1       2.938  81.708 111.045  0.00  0.00    -0.368 OA
BRANCH   7   8
ATOM      8  C   LIG d   1       2.501  81.510 109.678  0.00  0.00     0.119 C 
BRANCH   8   9
ATOM      9  C   LIG d   1       3.021  80.133 109.222  0.00  0.00     0.028 C 
ATOM     10  C   LIG d   1       1.888  79.198 108.767  0.00  0.00     0.006 C 
ENDBRANCH   8   9
BRANCH   8  11
ATOM     11  C   LIG d   1       3.153  82.523 108.733  0.00  0.00     0.028 C 
ATOM     12  C   LIG d   1       4.457  83.111 109.295  0.00  0.00     0.006 C 
ENDBRANCH   8  11
ENDBRANCH   7   8
ENDBRANCH   1   7
BRANCH   6  13
ATOM     13  N   LIG d   1       2.270  84.345 112.344  0.00  0.00    -0.311 N 
ATOM     14  C   LIG d   1       2.719  85.383 111.641  0.00  0.00     0.210 C 
ATOM     15  C   LIG d   1       3.735  86.267 112.370  0.00  0.00     0.109 C 
ATOM     16  O   LIG d   1       2.349  85.673 110.493  0.00  0.00    -0.276 OA
ATOM     17  H   LIG d   1       2.600  84.203 113.279  0.00  0.00     0.149 HD
ENDBRANCH   6  13
BRANCH   5  18
ATOM     18  N   LIG d   1      -0.752  84.774 112.208  0.00  0.00     0.381 N 
ATOM     19  H   LIG d   1      -0.217  85.517 112.610  0.00  0.00    -0.090 HD
ATOM     20  H   LIG d   1      -1.661  84.772 112.635  0.00  0.00    -0.090 HD
ATOM     21  H   LIG d   1      -0.839  84.912 111.225  0.00  0.00    -0.090 HD
ENDBRANCH   5  18
BRANCH   3  22
ATOM     22  C   LIG d   1      -1.278  80.013 112.187  0.00  0.00     0.382 C 
ATOM     23  O   LIG d   1      -1.670  79.690 113.334  0.00  0.00    -0.241 OA
ATOM     24  O   LIG d   1      -1.619  79.326 111.206  0.00  0.00    -0.241 OA
ENDBRANCH   3  22
TORSDOF 7
ENDMDL
MODEL 4
REMARK VINA RESULT:      -6.0      1.058      2.048
REMARK  7 active torsions:
REMARK  status: ('A' for Active; 'I' for Inactive)
REMARK    1  A    between atoms: C_2  and  C_3 
REMARK    2  A    between atoms: C_3  and  O_6 
REMARK    3  A    between atoms: C_3  and  C_4 
REMARK    4  A    between atoms: C_7  and  O_6 
REMARK    5  A    between atoms: C_9  and  C_10 
REMARK    6  A    between atoms: N_15  and  C_14 
REMARK    7  A    between atoms: N_20  and  C_19 
REMARK       I    between atoms: C_22  and  N_20 
ROOT
ATOM      1  C   LIG d   1       1.403  82.818 111.976  0.00  0.00     0.161 C 
ATOM      2  C   LIG d   1       2.416  82.879 111.004  0.00  0.00     0.016 C 
ATOM      3  C   LIG d   1       2.516  81.969 109.926  0.00  0.00     0.038 C 
ATOM      4  C   LIG d   1       1.515  81.023 109.660  0.00  0.00     0.028 C 
ATOM      5  C   LIG d   1       0.737  80.598 110.901  0.00  0.00    -0.047 C 
ATOM      6  C   LIG d   1       0.240  81.862 111.639  0.00  0.00     0.091 C 
ENDROOT
BRANCH   1   7
ATOM      7  O   LIG d   1       0.901  84.143 112.241  0.00  0.00    -0.368 OA
BRANCH   7   8
ATOM      8  C   LIG d   1       1.536  84.859 113.329  0.00  0.00     0.119 C 
BRANCH   8   9
ATOM      9  C   LIG d   1       0.490  85.025 114.448  0.00  0.00     0.028 C 
ATOM     10  C   LIG d   1      -0.944  85.121 113.900  0.00  0.00     0.006 C 
ENDBRANCH   8   9
BRANCH   8  11
ATOM     11  C   LIG d   1       1.914  86.284 112.912  0.00  0.00     0.028 C 
ATOM     12  C   LIG d   1       1.650  86.559 111.424  0.00  0.00     0.006 C 
ENDBRANCH   8  11
ENDBRANCH   7   8
ENDBRANCH   1   7
BRANCH   6  13
ATOM     13  N   LIG d   1      -0.459  81.538 112.910  0.00  0.00    -0.311 N 
ATOM     14  C   LIG d   1      -1.784  81.480 113.023  0.00  0.00     0.210 C 
ATOM     15  C   LIG d   1      -2.299  81.149 114.428  0.00  0.00     0.109 C 
ATOM     16  O   LIG d   1      -2.582  81.639 112.087  0.00  0.00    -0.276 OA
ATOM     17  H   LIG d   1       0.113  81.364 113.713  0.00  0.00     0.149 HD
ENDBRANCH   6  13
BRANCH   5  18
ATOM     18  N   LIG d   1      -0.360  79.717 110.459  0.00  0.00     0.381 N 
ATOM     19  H   LIG d   1      -0.841  80.135 109.688  0.00  0.00    -0.090 HD
ATOM     20  H   LIG d   1      -1.013  79.606 111.215  0.00  0.00    -0.090 HD
ATOM     21  H   LIG d   1       0.003  78.828 110.191  0.00  0.00    -0.090 HD
ENDBRANCH   5  18
BRANCH   3  22
ATOM     22  C   LIG d   1       3.647  81.975 109.125  0.00  0.00     0.382 C 
ATOM     23  O   LIG d   1       3.851  81.034 108.321  0.00  0.00    -0.241 OA
ATOM     24  O   LIG d   1       4.489  82.888 109.226  0.00  0.00    -0.241 OA
ENDBRANCH   3  22
TORSDOF 7
ENDMDL
MODEL 5
REMARK VINA RESULT:      -5.5      2.169      4.258
REMARK  7 active torsions:
REMARK  status: ('A' for Active; 'I' for Inactive)
REMARK    1  A    between atoms: C_2  and  C_3 
REMARK    2  A    between atoms: C_3  and  O_6 
REMARK    3  A    between atoms: C_3  and  C_4 
REMARK    4  A    between atoms: C_7  and  O_6 
REMARK    5  A    between atoms: C_9  and  C_10 
REMARK    6  A    between atoms: N_15  and  C_14 
REMARK    7  A    between atoms: N_20  and  C_19 
REMARK       I    between atoms: C_22  and  N_20 
ROOT
ATOM      1  C   LIG d   1       0.132  82.136 110.281  0.00  0.00     0.161 C 
ATOM      2  C   LIG d   1       0.888  80.979 110.029  0.00  0.00     0.016 C 
ATOM      3  C   LIG d   1       2.286  80.995 109.817  0.00  0.00     0.038 C 
ATOM      4  C   LIG d   1       3.050  82.158 109.993  0.00  0.00     0.028 C 
ATOM      5  C   LIG d   1       2.263  83.442 109.750  0.00  0.00    -0.047 C 
ATOM      6  C   LIG d   1       0.964  83.399 110.586  0.00  0.00     0.091 C 
ENDROOT
BRANCH   1   7
ATOM      7  O   LIG d   1      -0.807  81.884 111.345  0.00  0.00    -0.368 OA
BRANCH   7   8
ATOM      8  C   LIG d   1      -0.551  80.711 112.156  0.00  0.00     0.119 C 
BRANCH   8   9
ATOM      9  C   LIG d   1      -1.858  79.898 112.220  0.00  0.00     0.028 C 
ATOM     10  C   LIG d   1      -1.869  78.895 113.385  0.00  0.00     0.006 C 
ENDBRANCH   8   9
BRANCH   8  11
ATOM     11  C   LIG d   1      -0.240  81.094 113.606  0.00  0.00     0.028 C 
ATOM     12  C   LIG d   1       1.224  81.515 113.811  0.00  0.00     0.006 C 
ENDBRANCH   8  11
ENDBRANCH   7   8
ENDBRANCH   1   7
BRANCH   6  13
ATOM     13  N   LIG d   1       0.095  84.580 110.343  0.00  0.00    -0.311 N 
ATOM     14  C   LIG d   1      -0.370  85.361 111.316  0.00  0.00     0.210 C 
ATOM     15  C   LIG d   1      -1.266  86.513 110.849  0.00  0.00     0.109 C 
ATOM     16  O   LIG d   1      -0.100  85.229 112.519  0.00  0.00    -0.276 OA
ATOM     17  H   LIG d   1      -0.149  84.779 109.392  0.00  0.00     0.149 HD
ENDBRANCH   6  13
BRANCH   5  18
ATOM     18  N   LIG d   1       3.140  84.575 110.102  0.00  0.00     0.381 N 
ATOM     19  H   LIG d   1       3.954  84.566 109.521  0.00  0.00    -0.090 HD
ATOM     20  H   LIG d   1       3.433  84.475 111.058  0.00  0.00    -0.090 HD
ATOM     21  H   LIG d   1       2.650  85.434 109.986  0.00  0.00    -0.090 HD
ENDBRANCH   5  18
BRANCH   3  22
ATOM     22  C   LIG d   1       2.928  79.844 109.386  0.00  0.00     0.382 C 
ATOM     23  O   LIG d   1       2.298  78.761 109.320  0.00  0.00    -0.241 OA
ATOM     24  O   LIG d   1       4.142  79.866 109.104  0.00  0.00    -0.241 OA
ENDBRANCH   3  22
TORSDOF 7
ENDMDL
MODEL 6
REMARK VINA RESULT:      -5.3      2.373      4.217
REMARK  7 active torsions:
REMARK  status: ('A' for Active; 'I' for Inactive)
REMARK    1  A    between atoms: C_2  and  C_3 
REMARK    2  A    between atoms: C_3  and  O_6 
REMARK    3  A    between atoms: C_3  and  C_4 
REMARK    4  A    between atoms: C_7  and  O_6 
REMARK    5  A    between atoms: C_9  and  C_10 
REMARK    6  A    between atoms: N_15  and  C_14 
REMARK    7  A    between atoms: N_20  and  C_19 
REMARK       I    between atoms: C_22  and  N_20 
ROOT
ATOM      1  C   LIG d   1       1.010  82.122 111.149  0.00  0.00     0.161 C 
ATOM      2  C   LIG d   1       1.006  80.860 110.531  0.00  0.00     0.016 C 
ATOM      3  C   LIG d   1       2.022  80.422 109.651  0.00  0.00     0.038 C 
ATOM      4  C   LIG d   1       3.196  81.162 109.446  0.00  0.00     0.028 C 
ATOM      5  C   LIG d   1       3.011  82.661 109.653  0.00  0.00    -0.047 C 
ATOM      6  C   LIG d   1       2.338  82.899 111.024  0.00  0.00     0.091 C 
ENDROOT
BRANCH   1   7
ATOM      7  O   LIG d   1       0.636  81.989 112.534  0.00  0.00    -0.368 OA
BRANCH   7   8
ATOM      8  C   LIG d   1      -0.627  82.590 112.914  0.00  0.00     0.119 C 
BRANCH   8   9
ATOM      9  C   LIG d   1      -0.326  83.675 113.965  0.00  0.00     0.028 C 
ATOM     10  C   LIG d   1      -0.793  85.071 113.519  0.00  0.00     0.006 C 
ENDBRANCH   8   9
BRANCH   8  11
ATOM     11  C   LIG d   1      -1.534  81.580 113.622  0.00  0.00     0.028 C 
ATOM     12  C   LIG d   1      -2.626  81.011 112.702  0.00  0.00     0.006 C 
ENDBRANCH   8  11
ENDBRANCH   7   8
ENDBRANCH   1   7
BRANCH   6  13
ATOM     13  N   LIG d   1       2.043  84.335 111.270  0.00  0.00    -0.311 N 
ATOM     14  C   LIG d   1       2.837  85.136 111.978  0.00  0.00     0.210 C 
ATOM     15  C   LIG d   1       2.337  86.576 112.127  0.00  0.00     0.109 C 
ATOM     16  O   LIG d   1       3.925  84.798 112.471  0.00  0.00    -0.276 OA
ATOM     17  H   LIG d   1       1.196  84.700 110.880  0.00  0.00     0.149 HD
ENDBRANCH   6  13
BRANCH   5  18
ATOM     18  N   LIG d   1       4.339  83.294 109.544  0.00  0.00     0.381 N 
ATOM     19  H   LIG d   1       4.448  83.696 108.634  0.00  0.00    -0.090 HD
ATOM     20  H   LIG d   1       5.045  82.590 109.665  0.00  0.00    -0.090 HD
ATOM     21  H   LIG d   1       4.439  83.999 110.240  0.00  0.00    -0.090 HD
ENDBRANCH   5  18
BRANCH   3  22
ATOM     22  C   LIG d   1       1.850  79.247 108.935  0.00  0.00     0.382 C 
ATOM     23  O   LIG d   1       1.853  78.143 109.530  0.00  0.00    -0.241 OA
ATOM     24  O   LIG d   1       1.738  79.275 107.694  0.00  0.00    -0.241 OA
ENDBRANCH   3  22
TORSDOF 7
ENDMDL
MODEL 7
REMARK VINA RESULT:      -3.7     28.617     29.703
REMARK  7 active torsions:
REMARK  status: ('A' for Active; 'I' for Inactive)
REMARK    1  A    between atoms: C_2  and  C_3 
REMARK    2  A    between atoms: C_3  and  O_6 
REMARK    3  A    between atoms: C_3  and  C_4 
REMARK    4  A    between atoms: C_7  and  O_6 
REMARK    5  A    between atoms: C_9  and  C_10 
REMARK    6  A    between atoms: N_15  and  C_14 
REMARK    7  A    between atoms: N_20  and  C_19 
REMARK       I    between atoms: C_22  and  N_20 
ROOT
ATOM      1  C   LIG d   1     -22.583  64.435 109.056  0.00  0.00     0.161 C 
ATOM      2  C   LIG d   1     -22.231  64.189 110.394  0.00  0.00     0.016 C 
ATOM      3  C   LIG d   1     -21.076  63.469 110.775  0.00  0.00     0.038 C 
ATOM      4  C   LIG d   1     -20.107  63.072 109.841  0.00  0.00     0.028 C 
ATOM      5  C   LIG d   1     -20.670  62.856 108.440  0.00  0.00    -0.047 C 
ATOM      6  C   LIG d   1     -21.481  64.106 108.027  0.00  0.00     0.091 C 
ENDROOT
BRANCH   1   7
ATOM      7  O   LIG d   1     -23.015  65.802 108.908  0.00  0.00    -0.368 OA
BRANCH   7   8
ATOM      8  C   LIG d   1     -24.414  66.061 109.182  0.00  0.00     0.119 C 
BRANCH   8   9
ATOM      9  C   LIG d   1     -25.065  66.528 107.865  0.00  0.00     0.028 C 
ATOM     10  C   LIG d   1     -25.646  67.948 107.970  0.00  0.00     0.006 C 
ENDBRANCH   8   9
BRANCH   8  11
ATOM     11  C   LIG d   1     -24.584  67.230 110.156  0.00  0.00     0.028 C 
ATOM     12  C   LIG d   1     -23.285  67.580 110.899  0.00  0.00     0.006 C 
ENDBRANCH   8  11
ENDBRANCH   7   8
ENDBRANCH   1   7
BRANCH   6  13
ATOM     13  N   LIG d   1     -22.136  63.944 106.703  0.00  0.00    -0.311 N 
ATOM     14  C   LIG d   1     -21.554  64.275 105.552  0.00  0.00     0.210 C 
ATOM     15  C   LIG d   1     -22.412  64.047 104.304  0.00  0.00     0.109 C 
ATOM     16  O   LIG d   1     -20.396  64.706 105.443  0.00  0.00    -0.276 OA
ATOM     17  H   LIG d   1     -23.065  63.572 106.696  0.00  0.00     0.149 HD
ENDBRANCH   6  13
BRANCH   5  18
ATOM     18  N   LIG d   1     -19.533  62.582 107.541  0.00  0.00     0.381 N 
ATOM     19  H   LIG d   1     -19.799  62.763 106.593  0.00  0.00    -0.090 HD
ATOM     20  H   LIG d   1     -19.284  61.611 107.618  0.00  0.00    -0.090 HD
ATOM     21  H   LIG d   1     -18.756  63.153 107.790  0.00  0.00    -0.090 HD
ENDBRANCH   5  18
BRANCH   3  22
ATOM     22  C   LIG d   1     -20.900  63.103 112.101  0.00  0.00     0.382 C 
ATOM     23  O   LIG d   1     -20.241  62.074 112.386  0.00  0.00    -0.241 OA
ATOM     24  O   LIG d   1     -21.430  63.764 113.014  0.00  0.00    -0.241 OA
ENDBRANCH   3  22
TORSDOF 7
ENDMDL
MODEL 8
REMARK VINA RESULT:      -3.7     28.087     29.817
REMARK  7 active torsions:
REMARK  status: ('A' for Active; 'I' for Inactive)
REMARK    1  A    between atoms: C_2  and  C_3 
REMARK    2  A    between atoms: C_3  and  O_6 
REMARK    3  A    between atoms: C_3  and  C_4 
REMARK    4  A    between atoms: C_7  and  O_6 
REMARK    5  A    between atoms: C_9  and  C_10 
REMARK    6  A    between atoms: N_15  and  C_14 
REMARK    7  A    between atoms: N_20  and  C_19 
REMARK       I    between atoms: C_22  and  N_20 
ROOT
ATOM      1  C   LIG d   1     -24.057  65.557 110.470  0.00  0.00     0.161 C 
ATOM      2  C   LIG d   1     -22.898  64.763 110.469  0.00  0.00     0.016 C 
ATOM      3  C   LIG d   1     -22.201  64.405 109.293  0.00  0.00     0.038 C 
ATOM      4  C   LIG d   1     -22.532  64.946 108.041  0.00  0.00     0.028 C 
ATOM      5  C   LIG d   1     -23.998  65.349 107.924  0.00  0.00    -0.047 C 
ATOM      6  C   LIG d   1     -24.369  66.248 109.126  0.00  0.00     0.091 C 
ENDROOT
BRANCH   1   7
ATOM      7  O   LIG d   1     -23.981  66.533 111.528  0.00  0.00    -0.368 OA
BRANCH   7   8
ATOM      8  C   LIG d   1     -23.531  67.855 111.145  0.00  0.00     0.119 C 
BRANCH   8   9
ATOM      9  C   LIG d   1     -22.254  68.162 111.951  0.00  0.00     0.028 C 
ATOM     10  C   LIG d   1     -22.109  67.257 113.186  0.00  0.00     0.006 C 
ENDBRANCH   8   9
BRANCH   8  11
ATOM     11  C   LIG d   1     -24.540  68.930 111.560  0.00  0.00     0.028 C 
ATOM     12  C   LIG d   1     -25.727  68.358 112.351  0.00  0.00     0.006 C 
ENDBRANCH   8  11
ENDBRANCH   7   8
ENDBRANCH   1   7
BRANCH   6  13
ATOM     13  N   LIG d   1     -25.808  66.618 109.133  0.00  0.00    -0.311 N 
ATOM     14  C   LIG d   1     -26.286  67.716 108.549  0.00  0.00     0.210 C 
ATOM     15  C   LIG d   1     -27.798  67.919 108.693  0.00  0.00     0.109 C 
ATOM     16  O   LIG d   1     -25.606  68.523 107.898  0.00  0.00    -0.276 OA
ATOM     17  H   LIG d   1     -26.435  66.002 109.613  0.00  0.00     0.149 HD
ENDBRANCH   6  13
BRANCH   5  18
ATOM     18  N   LIG d   1     -24.173  66.022 106.623  0.00  0.00     0.381 N 
ATOM     19  H   LIG d   1     -23.732  65.486 105.902  0.00  0.00    -0.090 HD
ATOM     20  H   LIG d   1     -23.730  66.923 106.661  0.00  0.00    -0.090 HD
ATOM     21  H   LIG d   1     -25.143  66.129 106.421  0.00  0.00    -0.090 HD
ENDBRANCH   5  18
BRANCH   3  22
ATOM     22  C   LIG d   1     -21.184  63.465 109.356  0.00  0.00     0.382 C 
ATOM     23  O   LIG d   1     -21.059  62.615 108.442  0.00  0.00    -0.241 OA
ATOM     24  O   LIG d   1     -20.417  63.429 110.337  0.00  0.00    -0.241 OA
ENDBRANCH   3  22
TORSDOF 7
ENDMDL
MODEL 9
REMARK VINA RESULT:      -3.5     27.848     30.005
REMARK  7 active torsions:
REMARK  status: ('A' for Active; 'I' for Inactive)
REMARK    1  A    between atoms: C_2  and  C_3 
REMARK    2  A    between atoms: C_3  and  O_6 
REMARK    3  A    between atoms: C_3  and  C_4 
REMARK    4  A    between atoms: C_7  and  O_6 
REMARK    5  A    between atoms: C_9  and  C_10 
REMARK    6  A    between atoms: N_15  and  C_14 
REMARK    7  A    between atoms: N_20  and  C_19 
REMARK       I    between atoms: C_22  and  N_20 
ROOT
ATOM      1  C   LIG d   1     -23.483  66.249 109.962  0.00  0.00     0.161 C 
ATOM      2  C   LIG d   1     -24.551  67.125 109.704  0.00  0.00     0.016 C 
ATOM      3  C   LIG d   1     -25.370  67.037 108.555  0.00  0.00     0.038 C 
ATOM      4  C   LIG d   1     -25.271  65.965 107.655  0.00  0.00     0.028 C 
ATOM      5  C   LIG d   1     -23.881  65.340 107.607  0.00  0.00    -0.047 C 
ATOM      6  C   LIG d   1     -23.431  65.007 109.048  0.00  0.00     0.091 C 
ENDROOT
BRANCH   1   7
ATOM      7  O   LIG d   1     -23.502  65.852 111.347  0.00  0.00    -0.368 OA
BRANCH   7   8
ATOM      8  C   LIG d   1     -22.382  66.294 112.152  0.00  0.00     0.119 C 
BRANCH   8   9
ATOM      9  C   LIG d   1     -22.115  65.208 113.212  0.00  0.00     0.028 C 
ATOM     10  C   LIG d   1     -20.676  64.669 113.151  0.00  0.00     0.006 C 
ENDBRANCH   8   9
BRANCH   8  11
ATOM     11  C   LIG d   1     -22.730  67.557 112.946  0.00  0.00     0.028 C 
ATOM     12  C   LIG d   1     -22.066  68.821 112.376  0.00  0.00     0.006 C 
ENDBRANCH   8  11
ENDBRANCH   7   8
ENDBRANCH   1   7
BRANCH   6  13
ATOM     13  N   LIG d   1     -22.046  64.469 109.099  0.00  0.00    -0.311 N 
ATOM     14  C   LIG d   1     -21.704  63.392 109.803  0.00  0.00     0.210 C 
ATOM     15  C   LIG d   1     -20.220  63.019 109.734  0.00  0.00     0.109 C 
ATOM     16  O   LIG d   1     -22.495  62.690 110.452  0.00  0.00    -0.276 OA
ATOM     17  H   LIG d   1     -21.347  64.959 108.576  0.00  0.00     0.149 HD
ENDBRANCH   6  13
BRANCH   5  18
ATOM     18  N   LIG d   1     -23.956  64.153 106.736  0.00  0.00     0.381 N 
ATOM     19  H   LIG d   1     -23.453  63.395 107.152  0.00  0.00    -0.090 HD
ATOM     20  H   LIG d   1     -23.526  64.369 105.853  0.00  0.00    -0.090 HD
ATOM     21  H   LIG d   1     -24.907  63.892 106.595  0.00  0.00    -0.090 HD
ENDBRANCH   5  18
BRANCH   3  22
ATOM     22  C   LIG d   1     -26.275  68.050 108.276  0.00  0.00     0.382 C 
ATOM     23  O   LIG d   1     -25.864  69.159 107.858  0.00  0.00    -0.241 OA
ATOM     24  O   LIG d   1     -27.492  67.884 108.480  0.00  0.00    -0.241 OA
ENDBRANCH   3  22
TORSDOF 7
ENDMDL
