MODEL 1
REMARK VINA RESULT:      -6.6      0.000      0.000
REMARK  7 active torsions:
REMARK  status: ('A' for Active; 'I' for Inactive)
REMARK    1  A    between atoms: C_2  and  C_3 
REMARK    2  A    between atoms: C_3  and  O_6 
REMARK    3  A    between atoms: C_3  and  C_4 
REMARK    4  A    between atoms: C_7  and  O_6 
REMARK    5  A    between atoms: C_9  and  C_10 
REMARK    6  A    between atoms: N_15  and  C_14 
REMARK    7  A    between atoms: N_20  and  C_19 
REMARK       I    between atoms: C_22  and  N_20 
ROOT
ATOM      1  C   LIG d   1       0.358  82.332 111.205  0.00  0.00     0.161 C 
ATOM      2  C   LIG d   1      -0.766  82.148 112.028  0.00  0.00     0.016 C 
ATOM      3  C   LIG d   1      -1.320  80.880 112.316  0.00  0.00     0.038 C 
ATOM      4  C   LIG d   1      -0.692  79.689 111.921  0.00  0.00     0.028 C 
ATOM      5  C   LIG d   1       0.161  79.842 110.667  0.00  0.00    -0.047 C 
ATOM      6  C   LIG d   1       1.122  81.038 110.856  0.00  0.00     0.091 C 
ENDROOT
BRANCH   1   7
ATOM      7  O   LIG d   1       1.248  83.294 111.804  0.00  0.00    -0.368 OA
BRANCH   7   8
ATOM      8  C   LIG d   1       1.326  84.585 111.149  0.00  0.00     0.119 C 
BRANCH   8   9
ATOM      9  C   LIG d   1       0.352  84.557 109.955  0.00  0.00     0.028 C 
ATOM     10  C   LIG d   1      -0.788  85.579 110.104  0.00  0.00     0.006 C 
ENDBRANCH   8   9
BRANCH   8  11
ATOM     11  C   LIG d   1       2.711  84.817 110.538  0.00  0.00     0.028 C 
ATOM     12  C   LIG d   1       3.667  85.552 111.491  0.00  0.00     0.006 C 
ENDBRANCH   8  11
ENDBRANCH   7   8
ENDBRANCH   1   7
BRANCH   6  13
ATOM     13  N   LIG d   1       1.935  81.310 109.642  0.00  0.00    -0.311 N 
ATOM     14  C   LIG d   1       3.266  81.352 109.645  0.00  0.00     0.210 C 
ATOM     15  C   LIG d   1       3.906  81.668 108.290  0.00  0.00     0.109 C 
ATOM     16  O   LIG d   1       3.978  81.127 110.635  0.00  0.00    -0.276 OA
ATOM     17  H   LIG d   1       1.439  81.474 108.788  0.00  0.00     0.149 HD
ENDBRANCH   6  13
BRANCH   5  18
ATOM     18  N   LIG d   1       0.865  78.564 110.448  0.00  0.00     0.381 N 
ATOM     19  H   LIG d   1       0.923  78.373 109.467  0.00  0.00    -0.090 HD
ATOM     20  H   LIG d   1       0.340  77.826 110.882  0.00  0.00    -0.090 HD
ATOM     21  H   LIG d   1       1.780  78.607 110.840  0.00  0.00    -0.090 HD
ENDBRANCH   5  18
BRANCH   3  22
ATOM     22  C   LIG d   1      -2.538  80.795 112.974  0.00  0.00     0.382 C 
ATOM     23  O   LIG d   1      -3.528  81.435 112.546  0.00  0.00    -0.241 OA
ATOM     24  O   LIG d   1      -2.647  80.121 114.016  0.00  0.00    -0.241 OA
ENDBRANCH   3  22
TORSDOF 7
ENDMDL
MODEL 2
REMARK VINA RESULT:      -6.6      2.548      4.953
REMARK  7 active torsions:
REMARK  status: ('A' for Active; 'I' for Inactive)
REMARK    1  A    between atoms: C_2  and  C_3 
REMARK    2  A    between atoms: C_3  and  O_6 
REMARK    3  A    between atoms: C_3  and  C_4 
REMARK    4  A    between atoms: C_7  and  O_6 
REMARK    5  A    between atoms: C_9  and  C_10 
REMARK    6  A    between atoms: N_15  and  C_14 
REMARK    7  A    between atoms: N_20  and  C_19 
REMARK       I    between atoms: C_22  and  N_20 
ROOT
ATOM      1  C   LIG d   1       2.204  83.390 109.823  0.00  0.00     0.161 C 
ATOM      2  C   LIG d   1       2.449  84.551 110.576  0.00  0.00     0.016 C 
ATOM      3  C   LIG d   1       1.644  84.956 111.665  0.00  0.00     0.038 C 
ATOM      4  C   LIG d   1       0.621  84.142 112.174  0.00  0.00     0.028 C 
ATOM      5  C   LIG d   1       0.018  83.206 111.133  0.00  0.00    -0.047 C 
ATOM      6  C   LIG d   1       1.158  82.433 110.432  0.00  0.00     0.091 C 
ENDROOT
BRANCH   1   7
ATOM      7  O   LIG d   1       3.442  82.693 109.582  0.00  0.00    -0.368 OA
BRANCH   7   8
ATOM      8  C   LIG d   1       3.756  81.617 110.500  0.00  0.00     0.119 C 
BRANCH   8   9
ATOM      9  C   LIG d   1       4.938  82.083 111.373  0.00  0.00     0.028 C 
ATOM     10  C   LIG d   1       4.533  82.306 112.839  0.00  0.00     0.006 C 
ENDBRANCH   8   9
BRANCH   8  11
ATOM     11  C   LIG d   1       4.265  80.379 109.755  0.00  0.00     0.028 C 
ATOM     12  C   LIG d   1       3.882  80.380 108.267  0.00  0.00     0.006 C 
ENDBRANCH   8  11
ENDBRANCH   7   8
ENDBRANCH   1   7
BRANCH   6  13
ATOM     13  N   LIG d   1       0.662  81.555 109.340  0.00  0.00    -0.311 N 
ATOM     14  C   LIG d   1       0.463  80.246 109.485  0.00  0.00     0.210 C 
ATOM     15  C   LIG d   1      -0.033  79.525 108.228  0.00  0.00     0.109 C 
ATOM     16  O   LIG d   1       0.621  79.620 110.543  0.00  0.00    -0.276 OA
ATOM     17  H   LIG d   1       0.478  81.987 108.456  0.00  0.00     0.149 HD
ENDBRANCH   6  13
BRANCH   5  18
ATOM     18  N   LIG d   1      -0.937  82.322 111.828  0.00  0.00     0.381 N 
ATOM     19  H   LIG d   1      -1.868  82.517 111.516  0.00  0.00    -0.090 HD
ATOM     20  H   LIG d   1      -0.891  82.506 112.815  0.00  0.00    -0.090 HD
ATOM     21  H   LIG d   1      -0.712  81.368 111.649  0.00  0.00    -0.090 HD
ENDBRANCH   5  18
BRANCH   3  22
ATOM     22  C   LIG d   1       1.835  86.206 112.233  0.00  0.00     0.382 C 
ATOM     23  O   LIG d   1       1.781  86.344 113.479  0.00  0.00    -0.241 OA
ATOM     24  O   LIG d   1       2.016  87.206 111.512  0.00  0.00    -0.241 OA
ENDBRANCH   3  22
TORSDOF 7
ENDMDL
MODEL 3
REMARK VINA RESULT:      -6.2      2.646      4.601
REMARK  7 active torsions:
REMARK  status: ('A' for Active; 'I' for Inactive)
REMARK    1  A    between atoms: C_2  and  C_3 
REMARK    2  A    between atoms: C_3  and  O_6 
REMARK    3  A    between atoms: C_3  and  C_4 
REMARK    4  A    between atoms: C_7  and  O_6 
REMARK    5  A    between atoms: C_9  and  C_10 
REMARK    6  A    between atoms: N_15  and  C_14 
REMARK    7  A    between atoms: N_20  and  C_19 
REMARK       I    between atoms: C_22  and  N_20 
ROOT
ATOM      1  C   LIG d   1       2.358  82.909 112.437  0.00  0.00     0.161 C 
ATOM      2  C   LIG d   1       1.548  81.774 112.267  0.00  0.00     0.016 C 
ATOM      3  C   LIG d   1       0.145  81.836 112.103  0.00  0.00     0.038 C 
ATOM      4  C   LIG d   1      -0.530  83.056 111.947  0.00  0.00     0.028 C 
ATOM      5  C   LIG d   1       0.178  84.230 112.616  0.00  0.00    -0.047 C 
ATOM      6  C   LIG d   1       1.654  84.254 112.158  0.00  0.00     0.091 C 
ENDROOT
BRANCH   1   7
ATOM      7  O   LIG d   1       3.545  82.788 111.629  0.00  0.00    -0.368 OA
BRANCH   7   8
ATOM      8  C   LIG d   1       3.391  82.082 110.373  0.00  0.00     0.119 C 
BRANCH   8   9
ATOM      9  C   LIG d   1       4.688  81.286 110.128  0.00  0.00     0.028 C 
ATOM     10  C   LIG d   1       4.423  79.923 109.466  0.00  0.00     0.006 C 
ENDBRANCH   8   9
BRANCH   8  11
ATOM     11  C   LIG d   1       3.286  83.057 109.195  0.00  0.00     0.028 C 
ATOM     12  C   LIG d   1       2.122  82.723 108.249  0.00  0.00     0.006 C 
ENDBRANCH   8  11
ENDBRANCH   7   8
ENDBRANCH   1   7
BRANCH   6  13
ATOM     13  N   LIG d   1       2.439  85.321 112.831  0.00  0.00    -0.311 N 
ATOM     14  C   LIG d   1       2.581  86.549 112.336  0.00  0.00     0.210 C 
ATOM     15  C   LIG d   1       3.448  87.489 113.179  0.00  0.00     0.109 C 
ATOM     16  O   LIG d   1       2.045  86.959 111.296  0.00  0.00    -0.276 OA
ATOM     17  H   LIG d   1       2.883  85.084 113.697  0.00  0.00     0.149 HD
ENDBRANCH   6  13
BRANCH   5  18
ATOM     18  N   LIG d   1      -0.559  85.457 112.259  0.00  0.00     0.381 N 
ATOM     19  H   LIG d   1      -0.005  86.016 111.641  0.00  0.00    -0.090 HD
ATOM     20  H   LIG d   1      -0.732  85.988 113.094  0.00  0.00    -0.090 HD
ATOM     21  H   LIG d   1      -1.422  85.221 111.822  0.00  0.00    -0.090 HD
ENDBRANCH   5  18
BRANCH   3  22
ATOM     22  C   LIG d   1      -0.603  80.669 112.135  0.00  0.00     0.382 C 
ATOM     23  O   LIG d   1      -0.595  79.892 111.150  0.00  0.00    -0.241 OA
ATOM     24  O   LIG d   1      -1.322  80.406 113.118  0.00  0.00    -0.241 OA
ENDBRANCH   3  22
TORSDOF 7
ENDMDL
MODEL 4
REMARK VINA RESULT:      -5.6      2.019      4.740
REMARK  7 active torsions:
REMARK  status: ('A' for Active; 'I' for Inactive)
REMARK    1  A    between atoms: C_2  and  C_3 
REMARK    2  A    between atoms: C_3  and  O_6 
REMARK    3  A    between atoms: C_3  and  C_4 
REMARK    4  A    between atoms: C_7  and  O_6 
REMARK    5  A    between atoms: C_9  and  C_10 
REMARK    6  A    between atoms: N_15  and  C_14 
REMARK    7  A    between atoms: N_20  and  C_19 
REMARK       I    between atoms: C_22  and  N_20 
ROOT
ATOM      1  C   LIG d   1       1.781  82.408 111.251  0.00  0.00     0.161 C 
ATOM      2  C   LIG d   1       1.341  83.708 111.551  0.00  0.00     0.016 C 
ATOM      3  C   LIG d   1       1.083  84.689 110.567  0.00  0.00     0.038 C 
ATOM      4  C   LIG d   1       1.102  84.387 109.197  0.00  0.00     0.028 C 
ATOM      5  C   LIG d   1       2.030  83.230 108.845  0.00  0.00    -0.047 C 
ATOM      6  C   LIG d   1       1.701  82.027 109.758  0.00  0.00     0.091 C 
ENDROOT
BRANCH   1   7
ATOM      7  O   LIG d   1       1.059  81.451 112.052  0.00  0.00    -0.368 OA
BRANCH   7   8
ATOM      8  C   LIG d   1      -0.219  81.016 111.527  0.00  0.00     0.119 C 
BRANCH   8   9
ATOM      9  C   LIG d   1      -1.316  81.585 112.448  0.00  0.00     0.028 C 
ATOM     10  C   LIG d   1      -2.389  80.541 112.798  0.00  0.00     0.006 C 
ENDBRANCH   8   9
BRANCH   8  11
ATOM     11  C   LIG d   1      -0.368  79.494 111.613  0.00  0.00     0.028 C 
ATOM     12  C   LIG d   1      -0.270  78.807 110.241  0.00  0.00     0.006 C 
ENDBRANCH   8  11
ENDBRANCH   7   8
ENDBRANCH   1   7
BRANCH   6  13
ATOM     13  N   LIG d   1       2.619  80.879 109.537  0.00  0.00    -0.311 N 
ATOM     14  C   LIG d   1       3.935  80.947 109.725  0.00  0.00     0.210 C 
ATOM     15  C   LIG d   1       4.699  79.654 109.420  0.00  0.00     0.109 C 
ATOM     16  O   LIG d   1       4.539  81.945 110.147  0.00  0.00    -0.276 OA
ATOM     17  H   LIG d   1       2.209  80.021 109.224  0.00  0.00     0.149 HD
ENDBRANCH   6  13
BRANCH   5  18
ATOM     18  N   LIG d   1       1.849  82.933 107.411  0.00  0.00     0.381 N 
ATOM     19  H   LIG d   1       2.014  83.759 106.871  0.00  0.00    -0.090 HD
ATOM     20  H   LIG d   1       0.900  82.640 107.257  0.00  0.00    -0.090 HD
ATOM     21  H   LIG d   1       2.477  82.213 107.129  0.00  0.00    -0.090 HD
ENDBRANCH   5  18
BRANCH   3  22
ATOM     22  C   LIG d   1       0.840  85.999 110.949  0.00  0.00     0.382 C 
ATOM     23  O   LIG d   1      -0.339  86.395 111.118  0.00  0.00    -0.241 OA
ATOM     24  O   LIG d   1       1.781  86.803 111.085  0.00  0.00    -0.241 OA
ENDBRANCH   3  22
TORSDOF 7
ENDMDL
MODEL 5
REMARK VINA RESULT:      -4.3     19.722     22.102
REMARK  7 active torsions:
REMARK  status: ('A' for Active; 'I' for Inactive)
REMARK    1  A    between atoms: C_2  and  C_3 
REMARK    2  A    between atoms: C_3  and  O_6 
REMARK    3  A    between atoms: C_3  and  C_4 
REMARK    4  A    between atoms: C_7  and  O_6 
REMARK    5  A    between atoms: C_9  and  C_10 
REMARK    6  A    between atoms: N_15  and  C_14 
REMARK    7  A    between atoms: N_20  and  C_19 
REMARK       I    between atoms: C_22  and  N_20 
ROOT
ATOM      1  C   LIG d   1       9.566  62.326 108.899  0.00  0.00     0.161 C 
ATOM      2  C   LIG d   1       9.403  62.956 110.144  0.00  0.00     0.016 C 
ATOM      3  C   LIG d   1       9.774  64.298 110.391  0.00  0.00     0.038 C 
ATOM      4  C   LIG d   1      10.198  65.152 109.362  0.00  0.00     0.028 C 
ATOM      5  C   LIG d   1      10.855  64.418 108.198  0.00  0.00    -0.047 C 
ATOM      6  C   LIG d   1       9.923  63.274 107.735  0.00  0.00     0.091 C 
ENDROOT
BRANCH   1   7
ATOM      7  O   LIG d   1       8.386  61.562 108.579  0.00  0.00    -0.368 OA
BRANCH   7   8
ATOM      8  C   LIG d   1       8.249  60.288 109.255  0.00  0.00     0.119 C 
BRANCH   8   9
ATOM      9  C   LIG d   1       9.434  59.404 108.820  0.00  0.00     0.028 C 
ATOM     10  C   LIG d   1       9.341  58.982 107.344  0.00  0.00     0.006 C 
ENDBRANCH   8   9
BRANCH   8  11
ATOM     11  C   LIG d   1       6.995  59.543 108.789  0.00  0.00     0.028 C 
ATOM     12  C   LIG d   1       6.128  59.046 109.958  0.00  0.00     0.006 C 
ENDBRANCH   8  11
ENDBRANCH   7   8
ENDBRANCH   1   7
BRANCH   6  13
ATOM     13  N   LIG d   1      10.528  62.452 106.655  0.00  0.00    -0.311 N 
ATOM     14  C   LIG d   1      10.265  62.633 105.362  0.00  0.00     0.210 C 
ATOM     15  C   LIG d   1      10.979  61.664 104.415  0.00  0.00     0.109 C 
ATOM     16  O   LIG d   1       9.533  63.525 104.907  0.00  0.00    -0.276 OA
ATOM     17  H   LIG d   1      11.159  61.726 106.933  0.00  0.00     0.149 HD
ENDBRANCH   6  13
BRANCH   5  18
ATOM     18  N   LIG d   1      11.122  65.409 107.139  0.00  0.00     0.381 N 
ATOM     19  H   LIG d   1      11.976  65.893 107.335  0.00  0.00    -0.090 HD
ATOM     20  H   LIG d   1      10.375  66.081 107.127  0.00  0.00    -0.090 HD
ATOM     21  H   LIG d   1      11.185  64.955 106.254  0.00  0.00    -0.090 HD
ENDBRANCH   5  18
BRANCH   3  22
ATOM     22  C   LIG d   1       9.761  64.787 111.688  0.00  0.00     0.382 C 
ATOM     23  O   LIG d   1       9.681  66.022 111.892  0.00  0.00    -0.241 OA
ATOM     24  O   LIG d   1       9.873  64.011 112.657  0.00  0.00    -0.241 OA
ENDBRANCH   3  22
TORSDOF 7
ENDMDL
MODEL 6
REMARK VINA RESULT:      -4.0     27.822     29.754
REMARK  7 active torsions:
REMARK  status: ('A' for Active; 'I' for Inactive)
REMARK    1  A    between atoms: C_2  and  C_3 
REMARK    2  A    between atoms: C_3  and  O_6 
REMARK    3  A    between atoms: C_3  and  C_4 
REMARK    4  A    between atoms: C_7  and  O_6 
REMARK    5  A    between atoms: C_9  and  C_10 
REMARK    6  A    between atoms: N_15  and  C_14 
REMARK    7  A    between atoms: N_20  and  C_19 
REMARK       I    between atoms: C_22  and  N_20 
ROOT
ATOM      1  C   LIG d   1     -26.873  72.826 110.925  0.00  0.00     0.161 C 
ATOM      2  C   LIG d   1     -26.587  73.838 111.857  0.00  0.00     0.016 C 
ATOM      3  C   LIG d   1     -26.835  75.209 111.618  0.00  0.00     0.038 C 
ATOM      4  C   LIG d   1     -27.530  75.650 110.482  0.00  0.00     0.028 C 
ATOM      5  C   LIG d   1     -27.387  74.717 109.284  0.00  0.00    -0.047 C 
ATOM      6  C   LIG d   1     -27.733  73.276 109.726  0.00  0.00     0.091 C 
ENDROOT
BRANCH   1   7
ATOM      7  O   LIG d   1     -27.489  71.707 111.592  0.00  0.00    -0.368 OA
BRANCH   7   8
ATOM      8  C   LIG d   1     -26.640  70.556 111.821  0.00  0.00     0.119 C 
BRANCH   8   9
ATOM      9  C   LIG d   1     -27.333  69.336 111.183  0.00  0.00     0.028 C 
ATOM     10  C   LIG d   1     -26.455  68.651 110.122  0.00  0.00     0.006 C 
ENDBRANCH   8   9
BRANCH   8  11
ATOM     11  C   LIG d   1     -26.537  70.229 113.314  0.00  0.00     0.028 C 
ATOM     12  C   LIG d   1     -25.181  69.614 113.696  0.00  0.00     0.006 C 
ENDBRANCH   8  11
ENDBRANCH   7   8
ENDBRANCH   1   7
BRANCH   6  13
ATOM     13  N   LIG d   1     -27.537  72.286 108.635  0.00  0.00    -0.311 N 
ATOM     14  C   LIG d   1     -28.446  71.371 108.303  0.00  0.00     0.210 C 
ATOM     15  C   LIG d   1     -28.035  70.435 107.163  0.00  0.00     0.109 C 
ATOM     16  O   LIG d   1     -29.567  71.266 108.824  0.00  0.00    -0.276 OA
ATOM     17  H   LIG d   1     -26.668  72.320 108.138  0.00  0.00     0.149 HD
ENDBRANCH   6  13
BRANCH   5  18
ATOM     18  N   LIG d   1     -28.271  75.223 108.217  0.00  0.00     0.381 N 
ATOM     19  H   LIG d   1     -28.429  76.202 108.344  0.00  0.00    -0.090 HD
ATOM     20  H   LIG d   1     -29.155  74.750 108.276  0.00  0.00    -0.090 HD
ATOM     21  H   LIG d   1     -27.857  75.059 107.325  0.00  0.00    -0.090 HD
ENDBRANCH   5  18
BRANCH   3  22
ATOM     22  C   LIG d   1     -26.350  76.160 112.503  0.00  0.00     0.382 C 
ATOM     23  O   LIG d   1     -27.050  77.159 112.796  0.00  0.00    -0.241 OA
ATOM     24  O   LIG d   1     -25.203  76.054 112.977  0.00  0.00    -0.241 OA
ENDBRANCH   3  22
TORSDOF 7
ENDMDL
MODEL 7
REMARK VINA RESULT:      -3.9     25.567     28.562
REMARK  7 active torsions:
REMARK  status: ('A' for Active; 'I' for Inactive)
REMARK    1  A    between atoms: C_2  and  C_3 
REMARK    2  A    between atoms: C_3  and  O_6 
REMARK    3  A    between atoms: C_3  and  C_4 
REMARK    4  A    between atoms: C_7  and  O_6 
REMARK    5  A    between atoms: C_9  and  C_10 
REMARK    6  A    between atoms: N_15  and  C_14 
REMARK    7  A    between atoms: N_20  and  C_19 
REMARK       I    between atoms: C_22  and  N_20 
ROOT
ATOM      1  C   LIG d   1     -27.555  86.087 112.615  0.00  0.00     0.161 C 
ATOM      2  C   LIG d   1     -28.235  87.270 112.282  0.00  0.00     0.016 C 
ATOM      3  C   LIG d   1     -27.675  88.559 112.436  0.00  0.00     0.038 C 
ATOM      4  C   LIG d   1     -26.332  88.746 112.792  0.00  0.00     0.028 C 
ATOM      5  C   LIG d   1     -25.760  87.601 113.622  0.00  0.00    -0.047 C 
ATOM      6  C   LIG d   1     -26.049  86.265 112.900  0.00  0.00     0.091 C 
ENDROOT
BRANCH   1   7
ATOM      7  O   LIG d   1     -27.756  85.101 111.582  0.00  0.00    -0.368 OA
BRANCH   7   8
ATOM      8  C   LIG d   1     -28.711  84.053 111.879  0.00  0.00     0.119 C 
BRANCH   8   9
ATOM      9  C   LIG d   1     -27.914  82.757 112.125  0.00  0.00     0.028 C 
ATOM     10  C   LIG d   1     -28.036  82.259 113.575  0.00  0.00     0.006 C 
ENDBRANCH   8   9
BRANCH   8  11
ATOM     11  C   LIG d   1     -29.605  83.756 110.672  0.00  0.00     0.028 C 
ATOM     12  C   LIG d   1     -30.073  85.029 109.949  0.00  0.00     0.006 C 
ENDBRANCH   8  11
ENDBRANCH   7   8
ENDBRANCH   1   7
BRANCH   6  13
ATOM     13  N   LIG d   1     -25.598  85.087 113.686  0.00  0.00    -0.311 N 
ATOM     14  C   LIG d   1     -24.708  84.204 113.236  0.00  0.00     0.210 C 
ATOM     15  C   LIG d   1     -24.397  83.052 114.198  0.00  0.00     0.109 C 
ATOM     16  O   LIG d   1     -24.123  84.281 112.146  0.00  0.00    -0.276 OA
ATOM     17  H   LIG d   1     -25.999  84.964 114.595  0.00  0.00     0.149 HD
ENDBRANCH   6  13
BRANCH   5  18
ATOM     18  N   LIG d   1     -24.320  87.859 113.806  0.00  0.00     0.381 N 
ATOM     19  H   LIG d   1     -24.182  88.797 114.128  0.00  0.00    -0.090 HD
ATOM     20  H   LIG d   1     -23.856  87.759 112.920  0.00  0.00    -0.090 HD
ATOM     21  H   LIG d   1     -23.939  87.215 114.463  0.00  0.00    -0.090 HD
ENDBRANCH   5  18
BRANCH   3  22
ATOM     22  C   LIG d   1     -28.475  89.680 112.270  0.00  0.00     0.382 C 
ATOM     23  O   LIG d   1     -29.686  89.640 112.595  0.00  0.00    -0.241 OA
ATOM     24  O   LIG d   1     -28.011  90.716 111.757  0.00  0.00    -0.241 OA
ENDBRANCH   3  22
TORSDOF 7
ENDMDL
MODEL 8
REMARK VINA RESULT:      -3.9     20.977     22.869
REMARK  7 active torsions:
REMARK  status: ('A' for Active; 'I' for Inactive)
REMARK    1  A    between atoms: C_2  and  C_3 
REMARK    2  A    between atoms: C_3  and  O_6 
REMARK    3  A    between atoms: C_3  and  C_4 
REMARK    4  A    between atoms: C_7  and  O_6 
REMARK    5  A    between atoms: C_9  and  C_10 
REMARK    6  A    between atoms: N_15  and  C_14 
REMARK    7  A    between atoms: N_20  and  C_19 
REMARK       I    between atoms: C_22  and  N_20 
ROOT
ATOM      1  C   LIG d   1       8.721  61.252 108.524  0.00  0.00     0.161 C 
ATOM      2  C   LIG d   1       7.931  60.402 109.316  0.00  0.00     0.016 C 
ATOM      3  C   LIG d   1       7.465  59.142 108.877  0.00  0.00     0.038 C 
ATOM      4  C   LIG d   1       7.886  58.576 107.664  0.00  0.00     0.028 C 
ATOM      5  C   LIG d   1       8.275  59.613 106.616  0.00  0.00    -0.047 C 
ATOM      6  C   LIG d   1       9.283  60.605 107.241  0.00  0.00     0.091 C 
ENDROOT
BRANCH   1   7
ATOM      7  O   LIG d   1       9.792  61.803 109.317  0.00  0.00    -0.368 OA
BRANCH   7   8
ATOM      8  C   LIG d   1       9.483  63.012 110.053  0.00  0.00     0.119 C 
BRANCH   8   9
ATOM      9  C   LIG d   1       9.439  64.172 109.039  0.00  0.00     0.028 C 
ATOM     10  C   LIG d   1      10.809  64.443 108.396  0.00  0.00     0.006 C 
ENDBRANCH   8   9
BRANCH   8  11
ATOM     11  C   LIG d   1      10.605  63.371 111.031  0.00  0.00     0.028 C 
ATOM     12  C   LIG d   1      10.099  64.135 112.265  0.00  0.00     0.006 C 
ENDBRANCH   8  11
ENDBRANCH   7   8
ENDBRANCH   1   7
BRANCH   6  13
ATOM     13  N   LIG d   1       9.652  61.701 106.308  0.00  0.00    -0.311 N 
ATOM     14  C   LIG d   1      10.735  61.671 105.533  0.00  0.00     0.210 C 
ATOM     15  C   LIG d   1      10.940  62.913 104.660  0.00  0.00     0.109 C 
ATOM     16  O   LIG d   1      11.527  60.720 105.462  0.00  0.00    -0.276 OA
ATOM     17  H   LIG d   1       9.047  62.498 106.279  0.00  0.00     0.149 HD
ENDBRANCH   6  13
BRANCH   5  18
ATOM     18  N   LIG d   1       8.824  58.887 105.454  0.00  0.00     0.381 N 
ATOM     19  H   LIG d   1       8.744  59.453 104.633  0.00  0.00    -0.090 HD
ATOM     20  H   LIG d   1       8.288  58.049 105.312  0.00  0.00    -0.090 HD
ATOM     21  H   LIG d   1       9.779  58.656 105.616  0.00  0.00    -0.090 HD
ENDBRANCH   5  18
BRANCH   3  22
ATOM     22  C   LIG d   1       6.535  58.450 109.639  0.00  0.00     0.382 C 
ATOM     23  O   LIG d   1       5.488  59.025 110.023  0.00  0.00    -0.241 OA
ATOM     24  O   LIG d   1       6.750  57.273 109.983  0.00  0.00    -0.241 OA
ENDBRANCH   3  22
TORSDOF 7
ENDMDL
MODEL 9
REMARK VINA RESULT:      -3.9     24.508     27.702
REMARK  7 active torsions:
REMARK  status: ('A' for Active; 'I' for Inactive)
REMARK    1  A    between atoms: C_2  and  C_3 
REMARK    2  A    between atoms: C_3  and  O_6 
REMARK    3  A    between atoms: C_3  and  C_4 
REMARK    4  A    between atoms: C_7  and  O_6 
REMARK    5  A    between atoms: C_9  and  C_10 
REMARK    6  A    between atoms: N_15  and  C_14 
REMARK    7  A    between atoms: N_20  and  C_19 
REMARK       I    between atoms: C_22  and  N_20 
ROOT
ATOM      1  C   LIG d   1     -26.108  85.081 113.272  0.00  0.00     0.161 C 
ATOM      2  C   LIG d   1     -24.712  84.930 113.226  0.00  0.00     0.016 C 
ATOM      3  C   LIG d   1     -23.808  86.005 113.386  0.00  0.00     0.038 C 
ATOM      4  C   LIG d   1     -24.239  87.288 113.757  0.00  0.00     0.028 C 
ATOM      5  C   LIG d   1     -25.666  87.597 113.319  0.00  0.00    -0.047 C 
ATOM      6  C   LIG d   1     -26.594  86.453 113.786  0.00  0.00     0.091 C 
ENDROOT
BRANCH   1   7
ATOM      7  O   LIG d   1     -26.688  84.019 114.055  0.00  0.00    -0.368 OA
BRANCH   7   8
ATOM      8  C   LIG d   1     -27.068  82.825 113.327  0.00  0.00     0.119 C 
BRANCH   8   9
ATOM      9  C   LIG d   1     -28.545  82.981 112.919  0.00  0.00     0.028 C 
ATOM     10  C   LIG d   1     -28.725  83.095 111.396  0.00  0.00     0.006 C 
ENDBRANCH   8   9
BRANCH   8  11
ATOM     11  C   LIG d   1     -27.024  81.586 114.227  0.00  0.00     0.028 C 
ATOM     12  C   LIG d   1     -27.881  80.429 113.690  0.00  0.00     0.006 C 
ENDBRANCH   8  11
ENDBRANCH   7   8
ENDBRANCH   1   7
BRANCH   6  13
ATOM     13  N   LIG d   1     -27.995  86.635 113.326  0.00  0.00    -0.311 N 
ATOM     14  C   LIG d   1     -28.348  86.661 112.042  0.00  0.00     0.210 C 
ATOM     15  C   LIG d   1     -29.842  86.880 111.786  0.00  0.00     0.109 C 
ATOM     16  O   LIG d   1     -27.569  86.491 111.091  0.00  0.00    -0.276 OA
ATOM     17  H   LIG d   1     -28.696  86.749 114.032  0.00  0.00     0.149 HD
ENDBRANCH   6  13
BRANCH   5  18
ATOM     18  N   LIG d   1     -26.033  88.908 113.888  0.00  0.00     0.381 N 
ATOM     19  H   LIG d   1     -26.947  88.858 114.292  0.00  0.00    -0.090 HD
ATOM     20  H   LIG d   1     -26.051  89.590 113.150  0.00  0.00    -0.090 HD
ATOM     21  H   LIG d   1     -25.370  89.176 114.582  0.00  0.00    -0.090 HD
ENDBRANCH   5  18
BRANCH   3  22
ATOM     22  C   LIG d   1     -22.458  85.811 113.135  0.00  0.00     0.382 C 
ATOM     23  O   LIG d   1     -21.627  86.695 113.455  0.00  0.00    -0.241 OA
ATOM     24  O   LIG d   1     -22.066  84.782 112.553  0.00  0.00    -0.241 OA
ENDBRANCH   3  22
TORSDOF 7
ENDMDL
