MODEL 1
REMARK VINA RESULT:      -6.6      0.000      0.000
REMARK  7 active torsions:
REMARK  status: ('A' for Active; 'I' for Inactive)
REMARK    1  A    between atoms: C_2  and  C_3 
REMARK    2  A    between atoms: C_3  and  O_6 
REMARK    3  A    between atoms: C_3  and  C_4 
REMARK    4  A    between atoms: C_7  and  O_6 
REMARK    5  A    between atoms: C_9  and  C_10 
REMARK    6  A    between atoms: N_15  and  C_14 
REMARK    7  A    between atoms: N_20  and  C_19 
REMARK       I    between atoms: C_22  and  N_20 
ROOT
ATOM      1  C   LIG d   1       0.726  82.026 110.963  0.00  0.00     0.161 C 
ATOM      2  C   LIG d   1      -0.446  81.850 111.717  0.00  0.00     0.016 C 
ATOM      3  C   LIG d   1      -1.088  80.600 111.878  0.00  0.00     0.038 C 
ATOM      4  C   LIG d   1      -0.513  79.407 111.417  0.00  0.00     0.028 C 
ATOM      5  C   LIG d   1       0.408  79.602 110.217  0.00  0.00    -0.047 C 
ATOM      6  C   LIG d   1       1.428  80.717 110.545  0.00  0.00     0.091 C 
ENDROOT
BRANCH   1   7
ATOM      7  O   LIG d   1       1.642  82.880 111.675  0.00  0.00    -0.368 OA
BRANCH   7   8
ATOM      8  C   LIG d   1       1.763  84.237 111.182  0.00  0.00     0.119 C 
BRANCH   8   9
ATOM      9  C   LIG d   1       1.131  84.277 109.777  0.00  0.00     0.028 C 
ATOM     10  C   LIG d   1       0.307  85.554 109.540  0.00  0.00     0.006 C 
ENDBRANCH   8   9
BRANCH   8  11
ATOM     11  C   LIG d   1       3.230  84.627 110.977  0.00  0.00     0.028 C 
ATOM     12  C   LIG d   1       3.544  86.047 111.474  0.00  0.00     0.006 C 
ENDBRANCH   8  11
ENDBRANCH   7   8
ENDBRANCH   1   7
BRANCH   6  13
ATOM     13  N   LIG d   1       2.314  81.030 109.393  0.00  0.00    -0.311 N 
ATOM     14  C   LIG d   1       3.624  81.241 109.512  0.00  0.00     0.210 C 
ATOM     15  C   LIG d   1       4.347  81.569 108.202  0.00  0.00     0.109 C 
ATOM     16  O   LIG d   1       4.260  81.156 110.573  0.00  0.00    -0.276 OA
ATOM     17  H   LIG d   1       1.885  81.088 108.490  0.00  0.00     0.149 HD
ENDBRANCH   6  13
BRANCH   5  18
ATOM     18  N   LIG d   1       1.044  78.303 109.928  0.00  0.00     0.381 N 
ATOM     19  H   LIG d   1       1.626  78.033 110.695  0.00  0.00    -0.090 HD
ATOM     20  H   LIG d   1       1.623  78.400 109.112  0.00  0.00    -0.090 HD
ATOM     21  H   LIG d   1       0.347  77.610 109.769  0.00  0.00    -0.090 HD
ENDBRANCH   5  18
BRANCH   3  22
ATOM     22  C   LIG d   1      -2.339  80.542 112.473  0.00  0.00     0.382 C 
ATOM     23  O   LIG d   1      -2.771  79.452 112.919  0.00  0.00    -0.241 OA
ATOM     24  O   LIG d   1      -3.060  81.556 112.530  0.00  0.00    -0.241 OA
ENDBRANCH   3  22
TORSDOF 7
ENDMDL
MODEL 2
REMARK VINA RESULT:      -6.5      1.841      4.952
REMARK  7 active torsions:
REMARK  status: ('A' for Active; 'I' for Inactive)
REMARK    1  A    between atoms: C_2  and  C_3 
REMARK    2  A    between atoms: C_3  and  O_6 
REMARK    3  A    between atoms: C_3  and  C_4 
REMARK    4  A    between atoms: C_7  and  O_6 
REMARK    5  A    between atoms: C_9  and  C_10 
REMARK    6  A    between atoms: N_15  and  C_14 
REMARK    7  A    between atoms: N_20  and  C_19 
REMARK       I    between atoms: C_22  and  N_20 
ROOT
ATOM      1  C   LIG d   1       1.461  81.309 111.807  0.00  0.00     0.161 C 
ATOM      2  C   LIG d   1       2.542  81.851 111.093  0.00  0.00     0.016 C 
ATOM      3  C   LIG d   1       2.692  81.724 109.693  0.00  0.00     0.038 C 
ATOM      4  C   LIG d   1       1.686  81.173 108.886  0.00  0.00     0.028 C 
ATOM      5  C   LIG d   1       0.808  80.163 109.618  0.00  0.00    -0.047 C 
ATOM      6  C   LIG d   1       0.297  80.800 110.930  0.00  0.00     0.091 C 
ENDROOT
BRANCH   1   7
ATOM      7  O   LIG d   1       0.980  82.268 112.769  0.00  0.00    -0.368 OA
BRANCH   7   8
ATOM      8  C   LIG d   1       1.154  83.664 112.419  0.00  0.00     0.119 C 
BRANCH   8   9
ATOM      9  C   LIG d   1       1.492  84.427 113.714  0.00  0.00     0.028 C 
ATOM     10  C   LIG d   1       0.826  85.812 113.770  0.00  0.00     0.006 C 
ENDBRANCH   8   9
BRANCH   8  11
ATOM     11  C   LIG d   1      -0.156  84.279 111.916  0.00  0.00     0.028 C 
ATOM     12  C   LIG d   1      -0.149  84.538 110.402  0.00  0.00     0.006 C 
ENDBRANCH   8  11
ENDBRANCH   7   8
ENDBRANCH   1   7
BRANCH   6  13
ATOM     13  N   LIG d   1      -0.501  79.850 111.749  0.00  0.00    -0.311 N 
ATOM     14  C   LIG d   1      -1.643  80.180 112.349  0.00  0.00     0.210 C 
ATOM     15  C   LIG d   1      -2.295  79.056 113.161  0.00  0.00     0.109 C 
ATOM     16  O   LIG d   1      -2.195  81.287 112.260  0.00  0.00    -0.276 OA
ATOM     17  H   LIG d   1      -0.142  78.921 111.848  0.00  0.00     0.149 HD
ENDBRANCH   6  13
BRANCH   5  18
ATOM     18  N   LIG d   1      -0.280  79.772 108.703  0.00  0.00     0.381 N 
ATOM     19  H   LIG d   1      -0.688  80.588 108.293  0.00  0.00    -0.090 HD
ATOM     20  H   LIG d   1      -0.991  79.294 109.228  0.00  0.00    -0.090 HD
ATOM     21  H   LIG d   1       0.073  79.174 107.989  0.00  0.00    -0.090 HD
ENDBRANCH   5  18
BRANCH   3  22
ATOM     22  C   LIG d   1       3.878  82.117 109.091  0.00  0.00     0.382 C 
ATOM     23  O   LIG d   1       4.507  81.312 108.362  0.00  0.00    -0.241 OA
ATOM     24  O   LIG d   1       4.349  83.250 109.302  0.00  0.00    -0.241 OA
ENDBRANCH   3  22
TORSDOF 7
ENDMDL
MODEL 3
REMARK VINA RESULT:      -6.1      2.788      4.671
REMARK  7 active torsions:
REMARK  status: ('A' for Active; 'I' for Inactive)
REMARK    1  A    between atoms: C_2  and  C_3 
REMARK    2  A    between atoms: C_3  and  O_6 
REMARK    3  A    between atoms: C_3  and  C_4 
REMARK    4  A    between atoms: C_7  and  O_6 
REMARK    5  A    between atoms: C_9  and  C_10 
REMARK    6  A    between atoms: N_15  and  C_14 
REMARK    7  A    between atoms: N_20  and  C_19 
REMARK       I    between atoms: C_22  and  N_20 
ROOT
ATOM      1  C   LIG d   1       2.115  83.586 111.081  0.00  0.00     0.161 C 
ATOM      2  C   LIG d   1       1.088  82.629 111.030  0.00  0.00     0.016 C 
ATOM      3  C   LIG d   1      -0.139  82.766 111.720  0.00  0.00     0.038 C 
ATOM      4  C   LIG d   1      -0.484  83.948 112.391  0.00  0.00     0.028 C 
ATOM      5  C   LIG d   1       0.722  84.737 112.889  0.00  0.00    -0.047 C 
ATOM      6  C   LIG d   1       1.712  84.933 111.717  0.00  0.00     0.091 C 
ENDROOT
BRANCH   1   7
ATOM      7  O   LIG d   1       2.652  83.797 109.760  0.00  0.00    -0.368 OA
BRANCH   7   8
ATOM      8  C   LIG d   1       3.810  83.001 109.409  0.00  0.00     0.119 C 
BRANCH   8   9
ATOM      9  C   LIG d   1       3.503  82.304 108.069  0.00  0.00     0.028 C 
ATOM     10  C   LIG d   1       2.068  82.571 107.584  0.00  0.00     0.006 C 
ENDBRANCH   8   9
BRANCH   8  11
ATOM     11  C   LIG d   1       4.032  81.867 110.414  0.00  0.00     0.028 C 
ATOM     12  C   LIG d   1       4.119  80.486 109.745  0.00  0.00     0.006 C 
ENDBRANCH   8  11
ENDBRANCH   7   8
ENDBRANCH   1   7
BRANCH   6  13
ATOM     13  N   LIG d   1       2.959  85.622 112.139  0.00  0.00    -0.311 N 
ATOM     14  C   LIG d   1       3.094  86.947 112.158  0.00  0.00     0.210 C 
ATOM     15  C   LIG d   1       4.470  87.451 112.607  0.00  0.00     0.109 C 
ATOM     16  O   LIG d   1       2.195  87.754 111.878  0.00  0.00    -0.276 OA
ATOM     17  H   LIG d   1       3.730  85.044 112.412  0.00  0.00     0.149 HD
ENDBRANCH   6  13
BRANCH   5  18
ATOM     18  N   LIG d   1       0.225  86.009 113.445  0.00  0.00     0.381 N 
ATOM     19  H   LIG d   1       0.327  86.007 114.440  0.00  0.00    -0.090 HD
ATOM     20  H   LIG d   1      -0.752  86.098 113.229  0.00  0.00    -0.090 HD
ATOM     21  H   LIG d   1       0.730  86.773 113.053  0.00  0.00    -0.090 HD
ENDBRANCH   5  18
BRANCH   3  22
ATOM     22  C   LIG d   1      -1.019  81.696 111.776  0.00  0.00     0.382 C 
ATOM     23  O   LIG d   1      -2.192  81.869 112.186  0.00  0.00    -0.241 OA
ATOM     24  O   LIG d   1      -0.641  80.550 111.464  0.00  0.00    -0.241 OA
ENDBRANCH   3  22
TORSDOF 7
ENDMDL
MODEL 4
REMARK VINA RESULT:      -5.9      1.950      4.709
REMARK  7 active torsions:
REMARK  status: ('A' for Active; 'I' for Inactive)
REMARK    1  A    between atoms: C_2  and  C_3 
REMARK    2  A    between atoms: C_3  and  O_6 
REMARK    3  A    between atoms: C_3  and  C_4 
REMARK    4  A    between atoms: C_7  and  O_6 
REMARK    5  A    between atoms: C_9  and  C_10 
REMARK    6  A    between atoms: N_15  and  C_14 
REMARK    7  A    between atoms: N_20  and  C_19 
REMARK       I    between atoms: C_22  and  N_20 
ROOT
ATOM      1  C   LIG d   1       0.692  82.359 111.152  0.00  0.00     0.161 C 
ATOM      2  C   LIG d   1       1.611  82.789 110.181  0.00  0.00     0.016 C 
ATOM      3  C   LIG d   1       2.222  81.920 109.249  0.00  0.00     0.038 C 
ATOM      4  C   LIG d   1       1.838  80.576 109.125  0.00  0.00     0.028 C 
ATOM      5  C   LIG d   1       1.282  79.984 110.416  0.00  0.00    -0.047 C 
ATOM      6  C   LIG d   1       0.177  80.917 110.961  0.00  0.00     0.091 C 
ENDROOT
BRANCH   1   7
ATOM      7  O   LIG d   1      -0.414  83.281 111.221  0.00  0.00    -0.368 OA
BRANCH   7   8
ATOM      8  C   LIG d   1      -0.351  84.274 112.274  0.00  0.00     0.119 C 
BRANCH   8   9
ATOM      9  C   LIG d   1      -0.378  85.661 111.604  0.00  0.00     0.028 C 
ATOM     10  C   LIG d   1      -0.674  85.579 110.097  0.00  0.00     0.006 C 
ENDBRANCH   8   9
BRANCH   8  11
ATOM     11  C   LIG d   1       0.985  84.210 113.021  0.00  0.00     0.028 C 
ATOM     12  C   LIG d   1       1.745  85.546 112.997  0.00  0.00     0.006 C 
ENDBRANCH   8  11
ENDBRANCH   7   8
ENDBRANCH   1   7
BRANCH   6  13
ATOM     13  N   LIG d   1      -0.362  80.454 112.267  0.00  0.00    -0.311 N 
ATOM     14  C   LIG d   1      -1.375  79.597 112.380  0.00  0.00     0.210 C 
ATOM     15  C   LIG d   1      -1.786  79.268 113.818  0.00  0.00     0.109 C 
ATOM     16  O   LIG d   1      -1.950  79.052 111.426  0.00  0.00    -0.276 OA
ATOM     17  H   LIG d   1       0.067  80.823 113.093  0.00  0.00     0.149 HD
ENDBRANCH   6  13
BRANCH   5  18
ATOM     18  N   LIG d   1       0.795  78.626 110.110  0.00  0.00     0.381 N 
ATOM     19  H   LIG d   1       0.273  78.271 110.886  0.00  0.00    -0.090 HD
ATOM     20  H   LIG d   1       1.584  78.024 109.957  0.00  0.00    -0.090 HD
ATOM     21  H   LIG d   1       0.221  78.646 109.295  0.00  0.00    -0.090 HD
ENDBRANCH   5  18
BRANCH   3  22
ATOM     22  C   LIG d   1       3.258  82.384 108.453  0.00  0.00     0.382 C 
ATOM     23  O   LIG d   1       4.093  83.195 108.921  0.00  0.00    -0.241 OA
ATOM     24  O   LIG d   1       3.343  82.037 107.260  0.00  0.00    -0.241 OA
ENDBRANCH   3  22
TORSDOF 7
ENDMDL
MODEL 5
REMARK VINA RESULT:      -5.8      2.734      5.887
REMARK  7 active torsions:
REMARK  status: ('A' for Active; 'I' for Inactive)
REMARK    1  A    between atoms: C_2  and  C_3 
REMARK    2  A    between atoms: C_3  and  O_6 
REMARK    3  A    between atoms: C_3  and  C_4 
REMARK    4  A    between atoms: C_7  and  O_6 
REMARK    5  A    between atoms: C_9  and  C_10 
REMARK    6  A    between atoms: N_15  and  C_14 
REMARK    7  A    between atoms: N_20  and  C_19 
REMARK       I    between atoms: C_22  and  N_20 
ROOT
ATOM      1  C   LIG d   1       1.137  84.590 110.745  0.00  0.00     0.161 C 
ATOM      2  C   LIG d   1       1.978  85.706 110.891  0.00  0.00     0.016 C 
ATOM      3  C   LIG d   1       2.613  86.048 112.108  0.00  0.00     0.038 C 
ATOM      4  C   LIG d   1       2.570  85.206 113.229  0.00  0.00     0.028 C 
ATOM      5  C   LIG d   1       1.323  84.329 113.280  0.00  0.00    -0.047 C 
ATOM      6  C   LIG d   1       1.167  83.598 111.926  0.00  0.00     0.091 C 
ENDROOT
BRANCH   1   7
ATOM      7  O   LIG d   1       1.439  83.910 109.511  0.00  0.00    -0.368 OA
BRANCH   7   8
ATOM      8  C   LIG d   1       2.283  82.737 109.621  0.00  0.00     0.119 C 
BRANCH   8   9
ATOM      9  C   LIG d   1       3.736  83.187 109.373  0.00  0.00     0.028 C 
ATOM     10  C   LIG d   1       4.551  82.138 108.598  0.00  0.00     0.006 C 
ENDBRANCH   8   9
BRANCH   8  11
ATOM     11  C   LIG d   1       1.977  81.725 108.512  0.00  0.00     0.028 C 
ATOM     12  C   LIG d   1       1.188  80.507 109.018  0.00  0.00     0.006 C 
ENDBRANCH   8  11
ENDBRANCH   7   8
ENDBRANCH   1   7
BRANCH   6  13
ATOM     13  N   LIG d   1      -0.074  82.784 111.862  0.00  0.00    -0.311 N 
ATOM     14  C   LIG d   1      -0.133  81.507 112.234  0.00  0.00     0.210 C 
ATOM     15  C   LIG d   1      -1.506  80.847 112.067  0.00  0.00     0.109 C 
ATOM     16  O   LIG d   1       0.813  80.866 112.717  0.00  0.00    -0.276 OA
ATOM     17  H   LIG d   1      -0.897  83.234 111.511  0.00  0.00     0.149 HD
ENDBRANCH   6  13
BRANCH   5  18
ATOM     18  N   LIG d   1       1.474  83.406 114.421  0.00  0.00     0.381 N 
ATOM     19  H   LIG d   1       2.021  82.615 114.146  0.00  0.00    -0.090 HD
ATOM     20  H   LIG d   1       0.565  83.080 114.697  0.00  0.00    -0.090 HD
ATOM     21  H   LIG d   1       1.913  83.875 115.183  0.00  0.00    -0.090 HD
ENDBRANCH   5  18
BRANCH   3  22
ATOM     22  C   LIG d   1       3.268  87.265 112.223  0.00  0.00     0.382 C 
ATOM     23  O   LIG d   1       2.607  88.322 112.360  0.00  0.00    -0.241 OA
ATOM     24  O   LIG d   1       4.510  87.323 112.147  0.00  0.00    -0.241 OA
ENDBRANCH   3  22
TORSDOF 7
ENDMDL
MODEL 6
REMARK VINA RESULT:      -5.3      2.378      5.226
REMARK  7 active torsions:
REMARK  status: ('A' for Active; 'I' for Inactive)
REMARK    1  A    between atoms: C_2  and  C_3 
REMARK    2  A    between atoms: C_3  and  O_6 
REMARK    3  A    between atoms: C_3  and  C_4 
REMARK    4  A    between atoms: C_7  and  O_6 
REMARK    5  A    between atoms: C_9  and  C_10 
REMARK    6  A    between atoms: N_15  and  C_14 
REMARK    7  A    between atoms: N_20  and  C_19 
REMARK       I    between atoms: C_22  and  N_20 
ROOT
ATOM      1  C   LIG d   1      -0.169  82.006 111.709  0.00  0.00     0.161 C 
ATOM      2  C   LIG d   1      -0.530  83.313 112.077  0.00  0.00     0.016 C 
ATOM      3  C   LIG d   1      -0.172  84.459 111.329  0.00  0.00     0.038 C 
ATOM      4  C   LIG d   1       0.445  84.362 110.073  0.00  0.00     0.028 C 
ATOM      5  C   LIG d   1       1.275  83.094 109.903  0.00  0.00    -0.047 C 
ATOM      6  C   LIG d   1       0.408  81.872 110.284  0.00  0.00     0.091 C 
ENDROOT
BRANCH   1   7
ATOM      7  O   LIG d   1      -1.295  81.123 111.879  0.00  0.00    -0.368 OA
BRANCH   7   8
ATOM      8  C   LIG d   1      -0.988  79.774 112.309  0.00  0.00     0.119 C 
BRANCH   8   9
ATOM      9  C   LIG d   1      -2.236  78.909 112.050  0.00  0.00     0.028 C 
ATOM     10  C   LIG d   1      -2.040  77.933 110.878  0.00  0.00     0.006 C 
ENDBRANCH   8   9
BRANCH   8  11
ATOM     11  C   LIG d   1      -0.759  79.711 113.822  0.00  0.00     0.028 C 
ATOM     12  C   LIG d   1      -1.318  78.428 114.457  0.00  0.00     0.006 C 
ENDBRANCH   8  11
ENDBRANCH   7   8
ENDBRANCH   1   7
BRANCH   6  13
ATOM     13  N   LIG d   1       1.170  80.597 110.226  0.00  0.00    -0.311 N 
ATOM     14  C   LIG d   1       0.882  79.609 109.381  0.00  0.00     0.210 C 
ATOM     15  C   LIG d   1       1.779  78.373 109.501  0.00  0.00     0.109 C 
ATOM     16  O   LIG d   1      -0.012  79.651 108.522  0.00  0.00    -0.276 OA
ATOM     17  H   LIG d   1       1.932  80.491 110.868  0.00  0.00     0.149 HD
ENDBRANCH   6  13
BRANCH   5  18
ATOM     18  N   LIG d   1       1.747  83.054 108.506  0.00  0.00     0.381 N 
ATOM     19  H   LIG d   1       2.381  82.290 108.384  0.00  0.00    -0.090 HD
ATOM     20  H   LIG d   1       2.238  83.907 108.305  0.00  0.00    -0.090 HD
ATOM     21  H   LIG d   1       0.972  82.955 107.887  0.00  0.00    -0.090 HD
ENDBRANCH   5  18
BRANCH   3  22
ATOM     22  C   LIG d   1      -0.398  85.721 111.856  0.00  0.00     0.382 C 
ATOM     23  O   LIG d   1       0.264  86.114 112.847  0.00  0.00    -0.241 OA
ATOM     24  O   LIG d   1      -1.285  86.455 111.382  0.00  0.00    -0.241 OA
ENDBRANCH   3  22
TORSDOF 7
ENDMDL
MODEL 7
REMARK VINA RESULT:      -5.3      2.179      4.241
REMARK  7 active torsions:
REMARK  status: ('A' for Active; 'I' for Inactive)
REMARK    1  A    between atoms: C_2  and  C_3 
REMARK    2  A    between atoms: C_3  and  O_6 
REMARK    3  A    between atoms: C_3  and  C_4 
REMARK    4  A    between atoms: C_7  and  O_6 
REMARK    5  A    between atoms: C_9  and  C_10 
REMARK    6  A    between atoms: N_15  and  C_14 
REMARK    7  A    between atoms: N_20  and  C_19 
REMARK       I    between atoms: C_22  and  N_20 
ROOT
ATOM      1  C   LIG d   1       1.870  81.937 111.164  0.00  0.00     0.161 C 
ATOM      2  C   LIG d   1       0.919  80.922 111.362  0.00  0.00     0.016 C 
ATOM      3  C   LIG d   1      -0.388  81.164 111.844  0.00  0.00     0.038 C 
ATOM      4  C   LIG d   1      -0.885  82.464 112.020  0.00  0.00     0.028 C 
ATOM      5  C   LIG d   1       0.202  83.493 112.315  0.00  0.00    -0.047 C 
ATOM      6  C   LIG d   1       1.311  83.373 111.245  0.00  0.00     0.091 C 
ENDROOT
BRANCH   1   7
ATOM      7  O   LIG d   1       2.549  81.733 109.909  0.00  0.00    -0.368 OA
BRANCH   7   8
ATOM      8  C   LIG d   1       3.677  80.824 109.934  0.00  0.00     0.119 C 
BRANCH   8   9
ATOM      9  C   LIG d   1       4.697  81.324 108.893  0.00  0.00     0.028 C 
ATOM     10  C   LIG d   1       4.565  82.831 108.618  0.00  0.00     0.006 C 
ENDBRANCH   8   9
BRANCH   8  11
ATOM     11  C   LIG d   1       3.274  79.423 109.467  0.00  0.00     0.028 C 
ATOM     12  C   LIG d   1       2.098  79.439 108.478  0.00  0.00     0.006 C 
ENDBRANCH   8  11
ENDBRANCH   7   8
ENDBRANCH   1   7
BRANCH   6  13
ATOM     13  N   LIG d   1       2.453  84.286 111.507  0.00  0.00    -0.311 N 
ATOM     14  C   LIG d   1       2.545  85.512 110.994  0.00  0.00     0.210 C 
ATOM     15  C   LIG d   1       3.814  86.280 111.375  0.00  0.00     0.109 C 
ATOM     16  O   LIG d   1       1.680  86.048 110.286  0.00  0.00    -0.276 OA
ATOM     17  H   LIG d   1       3.185  83.943 112.098  0.00  0.00     0.149 HD
ENDBRANCH   6  13
BRANCH   5  18
ATOM     18  N   LIG d   1      -0.437  84.822 112.338  0.00  0.00     0.381 N 
ATOM     19  H   LIG d   1      -0.378  85.211 113.258  0.00  0.00    -0.090 HD
ATOM     20  H   LIG d   1      -1.409  84.720 112.101  0.00  0.00    -0.090 HD
ATOM     21  H   LIG d   1       0.009  85.427 111.685  0.00  0.00    -0.090 HD
ENDBRANCH   5  18
BRANCH   3  22
ATOM     22  C   LIG d   1      -1.200  80.096 112.194  0.00  0.00     0.382 C 
ATOM     23  O   LIG d   1      -1.562  79.948 113.386  0.00  0.00    -0.241 OA
ATOM     24  O   LIG d   1      -1.539  79.254 111.341  0.00  0.00    -0.241 OA
ENDBRANCH   3  22
TORSDOF 7
ENDMDL
MODEL 8
REMARK VINA RESULT:      -5.2      2.136      4.978
REMARK  7 active torsions:
REMARK  status: ('A' for Active; 'I' for Inactive)
REMARK    1  A    between atoms: C_2  and  C_3 
REMARK    2  A    between atoms: C_3  and  O_6 
REMARK    3  A    between atoms: C_3  and  C_4 
REMARK    4  A    between atoms: C_7  and  O_6 
REMARK    5  A    between atoms: C_9  and  C_10 
REMARK    6  A    between atoms: N_15  and  C_14 
REMARK    7  A    between atoms: N_20  and  C_19 
REMARK       I    between atoms: C_22  and  N_20 
ROOT
ATOM      1  C   LIG d   1       0.701  82.213 111.242  0.00  0.00     0.161 C 
ATOM      2  C   LIG d   1      -0.057  83.291 111.729  0.00  0.00     0.016 C 
ATOM      3  C   LIG d   1       0.325  84.644 111.575  0.00  0.00     0.038 C 
ATOM      4  C   LIG d   1       1.423  85.019 110.787  0.00  0.00     0.028 C 
ATOM      5  C   LIG d   1       2.501  83.944 110.699  0.00  0.00    -0.047 C 
ATOM      6  C   LIG d   1       1.844  82.607 110.284  0.00  0.00     0.091 C 
ENDROOT
BRANCH   1   7
ATOM      7  O   LIG d   1      -0.167  81.248 110.617  0.00  0.00    -0.368 OA
BRANCH   7   8
ATOM      8  C   LIG d   1      -0.126  79.906 111.161  0.00  0.00     0.119 C 
BRANCH   8   9
ATOM      9  C   LIG d   1      -0.262  78.924 109.982  0.00  0.00     0.028 C 
ATOM     10  C   LIG d   1       1.091  78.336 109.548  0.00  0.00     0.006 C 
ENDBRANCH   8   9
BRANCH   8  11
ATOM     11  C   LIG d   1      -1.335  79.631 112.060  0.00  0.00     0.028 C 
ATOM     12  C   LIG d   1      -2.024  78.296 111.739  0.00  0.00     0.006 C 
ENDBRANCH   8  11
ENDBRANCH   7   8
ENDBRANCH   1   7
BRANCH   6  13
ATOM     13  N   LIG d   1       2.815  81.483 110.256  0.00  0.00    -0.311 N 
ATOM     14  C   LIG d   1       3.464  81.102 109.157  0.00  0.00     0.210 C 
ATOM     15  C   LIG d   1       4.405  79.907 109.343  0.00  0.00     0.109 C 
ATOM     16  O   LIG d   1       3.374  81.660 108.053  0.00  0.00    -0.276 OA
ATOM     17  H   LIG d   1       2.973  80.995 111.115  0.00  0.00     0.149 HD
ENDBRANCH   6  13
BRANCH   5  18
ATOM     18  N   LIG d   1       3.518  84.411 109.738  0.00  0.00     0.381 N 
ATOM     19  H   LIG d   1       4.294  83.779 109.732  0.00  0.00    -0.090 HD
ATOM     20  H   LIG d   1       3.850  85.314 110.029  0.00  0.00    -0.090 HD
ATOM     21  H   LIG d   1       3.123  84.472 108.826  0.00  0.00    -0.090 HD
ENDBRANCH   5  18
BRANCH   3  22
ATOM     22  C   LIG d   1      -0.373  85.635 112.248  0.00  0.00     0.382 C 
ATOM     23  O   LIG d   1      -0.056  85.937 113.424  0.00  0.00    -0.241 OA
ATOM     24  O   LIG d   1      -1.343  86.202 111.709  0.00  0.00    -0.241 OA
ENDBRANCH   3  22
TORSDOF 7
ENDMDL
MODEL 9
REMARK VINA RESULT:      -4.6      2.090      4.521
REMARK  7 active torsions:
REMARK  status: ('A' for Active; 'I' for Inactive)
REMARK    1  A    between atoms: C_2  and  C_3 
REMARK    2  A    between atoms: C_3  and  O_6 
REMARK    3  A    between atoms: C_3  and  C_4 
REMARK    4  A    between atoms: C_7  and  O_6 
REMARK    5  A    between atoms: C_9  and  C_10 
REMARK    6  A    between atoms: N_15  and  C_14 
REMARK    7  A    between atoms: N_20  and  C_19 
REMARK       I    between atoms: C_22  and  N_20 
ROOT
ATOM      1  C   LIG d   1       1.410  82.075 111.572  0.00  0.00     0.161 C 
ATOM      2  C   LIG d   1       0.692  83.079 112.244  0.00  0.00     0.016 C 
ATOM      3  C   LIG d   1       0.209  84.247 111.610  0.00  0.00     0.038 C 
ATOM      4  C   LIG d   1       0.282  84.420 110.219  0.00  0.00     0.028 C 
ATOM      5  C   LIG d   1       1.443  83.669 109.576  0.00  0.00    -0.047 C 
ATOM      6  C   LIG d   1       1.402  82.194 110.034  0.00  0.00     0.091 C 
ENDROOT
BRANCH   1   7
ATOM      7  O   LIG d   1       0.931  80.777 111.977  0.00  0.00    -0.368 OA
BRANCH   7   8
ATOM      8  C   LIG d   1      -0.315  80.343 111.379  0.00  0.00     0.119 C 
BRANCH   8   9
ATOM      9  C   LIG d   1      -1.253  79.913 112.524  0.00  0.00     0.028 C 
ATOM     10  C   LIG d   1      -2.571  80.705 112.532  0.00  0.00     0.006 C 
ENDBRANCH   8   9
BRANCH   8  11
ATOM     11  C   LIG d   1      -0.116  79.087 110.525  0.00  0.00     0.028 C 
ATOM     12  C   LIG d   1      -0.219  79.369 109.018  0.00  0.00     0.006 C 
ENDBRANCH   8  11
ENDBRANCH   7   8
ENDBRANCH   1   7
BRANCH   6  13
ATOM     13  N   LIG d   1       2.553  81.407 109.517  0.00  0.00    -0.311 N 
ATOM     14  C   LIG d   1       3.812  81.614 109.898  0.00  0.00     0.210 C 
ATOM     15  C   LIG d   1       4.848  80.706 109.227  0.00  0.00     0.109 C 
ATOM     16  O   LIG d   1       4.166  82.441 110.751  0.00  0.00    -0.276 OA
ATOM     17  H   LIG d   1       2.352  80.694 108.843  0.00  0.00     0.149 HD
ENDBRANCH   6  13
BRANCH   5  18
ATOM     18  N   LIG d   1       1.319  83.825 108.114  0.00  0.00     0.381 N 
ATOM     19  H   LIG d   1       1.537  82.959 107.662  0.00  0.00    -0.090 HD
ATOM     20  H   LIG d   1       1.976  84.518 107.804  0.00  0.00    -0.090 HD
ATOM     21  H   LIG d   1       0.392  84.106 107.879  0.00  0.00    -0.090 HD
ENDBRANCH   5  18
BRANCH   3  22
ATOM     22  C   LIG d   1      -0.319  85.276 112.375  0.00  0.00     0.382 C 
ATOM     23  O   LIG d   1      -1.234  85.997 111.909  0.00  0.00    -0.241 OA
ATOM     24  O   LIG d   1       0.139  85.520 113.507  0.00  0.00    -0.241 OA
ENDBRANCH   3  22
TORSDOF 7
ENDMDL
