MODEL 1
REMARK VINA RESULT:      -6.7      0.000      0.000
REMARK  7 active torsions:
REMARK  status: ('A' for Active; 'I' for Inactive)
REMARK    1  A    between atoms: C_2  and  C_3 
REMARK    2  A    between atoms: C_3  and  O_6 
REMARK    3  A    between atoms: C_3  and  C_4 
REMARK    4  A    between atoms: C_7  and  O_6 
REMARK    5  A    between atoms: C_9  and  C_10 
REMARK    6  A    between atoms: N_15  and  C_14 
REMARK    7  A    between atoms: N_20  and  C_19 
REMARK       I    between atoms: C_22  and  N_20 
ROOT
ATOM      1  C   LIG d   1       1.724  83.055 110.931  0.00  0.00     0.161 C 
ATOM      2  C   LIG d   1       2.703  82.578 110.044  0.00  0.00     0.016 C 
ATOM      3  C   LIG d   1       2.680  81.280 109.485  0.00  0.00     0.038 C 
ATOM      4  C   LIG d   1       1.587  80.417 109.657  0.00  0.00     0.028 C 
ATOM      5  C   LIG d   1       0.817  80.666 110.950  0.00  0.00    -0.047 C 
ATOM      6  C   LIG d   1       0.466  82.168 111.043  0.00  0.00     0.091 C 
ENDROOT
BRANCH   1   7
ATOM      7  O   LIG d   1       1.357  84.402 110.575  0.00  0.00    -0.368 OA
BRANCH   7   8
ATOM      8  C   LIG d   1       0.340  84.537 109.551  0.00  0.00     0.119 C 
BRANCH   8   9
ATOM      9  C   LIG d   1       1.010  85.162 108.313  0.00  0.00     0.028 C 
ATOM     10  C   LIG d   1       1.342  84.117 107.235  0.00  0.00     0.006 C 
ENDBRANCH   8   9
BRANCH   8  11
ATOM     11  C   LIG d   1      -0.745  85.532 109.972  0.00  0.00     0.028 C 
ATOM     12  C   LIG d   1      -0.607  85.983 111.434  0.00  0.00     0.006 C 
ENDBRANCH   8  11
ENDBRANCH   7   8
ENDBRANCH   1   7
BRANCH   6  13
ATOM     13  N   LIG d   1      -0.215  82.513 112.319  0.00  0.00    -0.311 N 
ATOM     14  C   LIG d   1      -1.539  82.532 112.461  0.00  0.00     0.210 C 
ATOM     15  C   LIG d   1      -2.034  82.933 113.855  0.00  0.00     0.109 C 
ATOM     16  O   LIG d   1      -2.350  82.224 111.575  0.00  0.00    -0.276 OA
ATOM     17  H   LIG d   1       0.368  82.746 113.099  0.00  0.00     0.149 HD
ENDBRANCH   6  13
BRANCH   5  18
ATOM     18  N   LIG d   1      -0.372  79.794 110.935  0.00  0.00     0.381 N 
ATOM     19  H   LIG d   1      -1.045  80.150 110.286  0.00  0.00    -0.090 HD
ATOM     20  H   LIG d   1      -0.787  79.794 111.850  0.00  0.00    -0.090 HD
ATOM     21  H   LIG d   1      -0.112  78.866 110.680  0.00  0.00    -0.090 HD
ENDBRANCH   5  18
BRANCH   3  22
ATOM     22  C   LIG d   1       3.778  80.818 108.775  0.00  0.00     0.382 C 
ATOM     23  O   LIG d   1       4.311  79.726 109.086  0.00  0.00    -0.241 OA
ATOM     24  O   LIG d   1       4.269  81.500 107.856  0.00  0.00    -0.241 OA
ENDBRANCH   3  22
TORSDOF 7
ENDMDL
MODEL 2
REMARK VINA RESULT:      -6.2      1.760      4.774
REMARK  7 active torsions:
REMARK  status: ('A' for Active; 'I' for Inactive)
REMARK    1  A    between atoms: C_2  and  C_3 
REMARK    2  A    between atoms: C_3  and  O_6 
REMARK    3  A    between atoms: C_3  and  C_4 
REMARK    4  A    between atoms: C_7  and  O_6 
REMARK    5  A    between atoms: C_9  and  C_10 
REMARK    6  A    between atoms: N_15  and  C_14 
REMARK    7  A    between atoms: N_20  and  C_19 
REMARK       I    between atoms: C_22  and  N_20 
ROOT
ATOM      1  C   LIG d   1       0.018  83.372 110.957  0.00  0.00     0.161 C 
ATOM      2  C   LIG d   1      -1.079  83.069 111.781  0.00  0.00     0.016 C 
ATOM      3  C   LIG d   1      -1.449  81.750 112.129  0.00  0.00     0.038 C 
ATOM      4  C   LIG d   1      -0.651  80.644 111.799  0.00  0.00     0.028 C 
ATOM      5  C   LIG d   1       0.188  80.856 110.543  0.00  0.00    -0.047 C 
ATOM      6  C   LIG d   1       0.965  82.186 110.678  0.00  0.00     0.091 C 
ENDROOT
BRANCH   1   7
ATOM      7  O   LIG d   1       0.754  84.481 111.511  0.00  0.00    -0.368 OA
BRANCH   7   8
ATOM      8  C   LIG d   1       0.547  85.765 110.875  0.00  0.00     0.119 C 
BRANCH   8   9
ATOM      9  C   LIG d   1      -0.286  85.522 109.601  0.00  0.00     0.028 C 
ATOM     10  C   LIG d   1       0.520  85.773 108.316  0.00  0.00     0.006 C 
ENDBRANCH   8   9
BRANCH   8  11
ATOM     11  C   LIG d   1       1.869  86.365 110.386  0.00  0.00     0.028 C 
ATOM     12  C   LIG d   1       3.097  85.606 110.912  0.00  0.00     0.006 C 
ENDBRANCH   8  11
ENDBRANCH   7   8
ENDBRANCH   1   7
BRANCH   6  13
ATOM     13  N   LIG d   1       1.746  82.512 109.456  0.00  0.00    -0.311 N 
ATOM     14  C   LIG d   1       3.034  82.205 109.306  0.00  0.00     0.210 C 
ATOM     15  C   LIG d   1       3.654  82.650 107.978  0.00  0.00     0.109 C 
ATOM     16  O   LIG d   1       3.713  81.579 110.134  0.00  0.00    -0.276 OA
ATOM     17  H   LIG d   1       1.265  82.993 108.722  0.00  0.00     0.149 HD
ENDBRANCH   6  13
BRANCH   5  18
ATOM     18  N   LIG d   1       1.070  79.684 110.393  0.00  0.00     0.381 N 
ATOM     19  H   LIG d   1       1.935  79.962 109.975  0.00  0.00    -0.090 HD
ATOM     20  H   LIG d   1       0.626  79.018 109.785  0.00  0.00    -0.090 HD
ATOM     21  H   LIG d   1       1.241  79.270 111.283  0.00  0.00    -0.090 HD
ENDBRANCH   5  18
BRANCH   3  22
ATOM     22  C   LIG d   1      -2.650  81.523 112.784  0.00  0.00     0.382 C 
ATOM     23  O   LIG d   1      -2.667  80.874 113.857  0.00  0.00    -0.241 OA
ATOM     24  O   LIG d   1      -3.723  81.922 112.291  0.00  0.00    -0.241 OA
ENDBRANCH   3  22
TORSDOF 7
ENDMDL
MODEL 3
REMARK VINA RESULT:      -5.5      1.875      4.651
REMARK  7 active torsions:
REMARK  status: ('A' for Active; 'I' for Inactive)
REMARK    1  A    between atoms: C_2  and  C_3 
REMARK    2  A    between atoms: C_3  and  O_6 
REMARK    3  A    between atoms: C_3  and  C_4 
REMARK    4  A    between atoms: C_7  and  O_6 
REMARK    5  A    between atoms: C_9  and  C_10 
REMARK    6  A    between atoms: N_15  and  C_14 
REMARK    7  A    between atoms: N_20  and  C_19 
REMARK       I    between atoms: C_22  and  N_20 
ROOT
ATOM      1  C   LIG d   1       0.100  82.903 111.300  0.00  0.00     0.161 C 
ATOM      2  C   LIG d   1      -1.208  82.600 111.712  0.00  0.00     0.016 C 
ATOM      3  C   LIG d   1      -1.503  81.821 112.854  0.00  0.00     0.038 C 
ATOM      4  C   LIG d   1      -0.505  81.416 113.753  0.00  0.00     0.028 C 
ATOM      5  C   LIG d   1       0.868  81.270 113.108  0.00  0.00    -0.047 C 
ATOM      6  C   LIG d   1       1.198  82.564 112.330  0.00  0.00     0.091 C 
ENDROOT
BRANCH   1   7
ATOM      7  O   LIG d   1       0.183  84.291 110.918  0.00  0.00    -0.368 OA
BRANCH   7   8
ATOM      8  C   LIG d   1      -0.026  84.579 109.514  0.00  0.00     0.119 C 
BRANCH   8   9
ATOM      9  C   LIG d   1       1.360  84.764 108.867  0.00  0.00     0.028 C 
ATOM     10  C   LIG d   1       1.637  83.726 107.766  0.00  0.00     0.006 C 
ENDBRANCH   8   9
BRANCH   8  11
ATOM     11  C   LIG d   1      -0.745  85.918 109.322  0.00  0.00     0.028 C 
ATOM     12  C   LIG d   1      -0.936  86.686 110.639  0.00  0.00     0.006 C 
ENDBRANCH   8  11
ENDBRANCH   7   8
ENDBRANCH   1   7
BRANCH   6  13
ATOM     13  N   LIG d   1       2.489  82.472 111.599  0.00  0.00    -0.311 N 
ATOM     14  C   LIG d   1       2.704  81.623 110.596  0.00  0.00     0.210 C 
ATOM     15  C   LIG d   1       4.111  81.678 109.993  0.00  0.00     0.109 C 
ATOM     16  O   LIG d   1       1.854  80.852 110.127  0.00  0.00    -0.276 OA
ATOM     17  H   LIG d   1       3.224  83.084 111.893  0.00  0.00     0.149 HD
ENDBRANCH   6  13
BRANCH   5  18
ATOM     18  N   LIG d   1       1.837  80.978 114.182  0.00  0.00     0.381 N 
ATOM     19  H   LIG d   1       1.367  80.547 114.954  0.00  0.00    -0.090 HD
ATOM     20  H   LIG d   1       2.239  81.842 114.501  0.00  0.00    -0.090 HD
ATOM     21  H   LIG d   1       2.553  80.376 113.842  0.00  0.00    -0.090 HD
ENDBRANCH   5  18
BRANCH   3  22
ATOM     22  C   LIG d   1      -2.806  81.406 113.085  0.00  0.00     0.382 C 
ATOM     23  O   LIG d   1      -3.032  80.470 113.889  0.00  0.00    -0.241 OA
ATOM     24  O   LIG d   1      -3.753  81.925 112.465  0.00  0.00    -0.241 OA
ENDBRANCH   3  22
TORSDOF 7
ENDMDL
MODEL 4
REMARK VINA RESULT:      -5.1      2.228      5.417
REMARK  7 active torsions:
REMARK  status: ('A' for Active; 'I' for Inactive)
REMARK    1  A    between atoms: C_2  and  C_3 
REMARK    2  A    between atoms: C_3  and  O_6 
REMARK    3  A    between atoms: C_3  and  C_4 
REMARK    4  A    between atoms: C_7  and  O_6 
REMARK    5  A    between atoms: C_9  and  C_10 
REMARK    6  A    between atoms: N_15  and  C_14 
REMARK    7  A    between atoms: N_20  and  C_19 
REMARK       I    between atoms: C_22  and  N_20 
ROOT
ATOM      1  C   LIG d   1       0.208  83.267 111.467  0.00  0.00     0.161 C 
ATOM      2  C   LIG d   1      -0.953  82.935 112.185  0.00  0.00     0.016 C 
ATOM      3  C   LIG d   1      -1.492  81.628 112.232  0.00  0.00     0.038 C 
ATOM      4  C   LIG d   1      -0.816  80.528 111.684  0.00  0.00     0.028 C 
ATOM      5  C   LIG d   1       0.098  80.896 110.521  0.00  0.00    -0.047 C 
ATOM      6  C   LIG d   1       1.020  82.059 110.955  0.00  0.00     0.091 C 
ENDROOT
BRANCH   1   7
ATOM      7  O   LIG d   1       1.044  84.131 112.263  0.00  0.00    -0.368 OA
BRANCH   7   8
ATOM      8  C   LIG d   1       2.267  83.544 112.770  0.00  0.00     0.119 C 
BRANCH   8   9
ATOM      9  C   LIG d   1       2.055  83.256 114.269  0.00  0.00     0.028 C 
ATOM     10  C   LIG d   1       1.762  81.772 114.546  0.00  0.00     0.006 C 
ENDBRANCH   8   9
BRANCH   8  11
ATOM     11  C   LIG d   1       3.430  84.539 112.709  0.00  0.00     0.028 C 
ATOM     12  C   LIG d   1       3.468  85.487 113.918  0.00  0.00     0.006 C 
ENDBRANCH   8  11
ENDBRANCH   7   8
ENDBRANCH   1   7
BRANCH   6  13
ATOM     13  N   LIG d   1       1.889  82.537 109.849  0.00  0.00    -0.311 N 
ATOM     14  C   LIG d   1       3.104  82.048 109.607  0.00  0.00     0.210 C 
ATOM     15  C   LIG d   1       3.840  82.697 108.430  0.00  0.00     0.109 C 
ATOM     16  O   LIG d   1       3.630  81.117 110.236  0.00  0.00    -0.276 OA
ATOM     17  H   LIG d   1       1.528  83.270 109.270  0.00  0.00     0.149 HD
ENDBRANCH   6  13
BRANCH   5  18
ATOM     18  N   LIG d   1       0.842  79.682 110.136  0.00  0.00     0.381 N 
ATOM     19  H   LIG d   1       1.826  79.846 110.220  0.00  0.00    -0.090 HD
ATOM     20  H   LIG d   1       0.639  79.466 109.176  0.00  0.00    -0.090 HD
ATOM     21  H   LIG d   1       0.575  78.919 110.719  0.00  0.00    -0.090 HD
ENDBRANCH   5  18
BRANCH   3  22
ATOM     22  C   LIG d   1      -2.740  81.420 112.798  0.00  0.00     0.382 C 
ATOM     23  O   LIG d   1      -3.172  80.252 112.949  0.00  0.00    -0.241 OA
ATOM     24  O   LIG d   1      -3.457  82.386 113.119  0.00  0.00    -0.241 OA
ENDBRANCH   3  22
TORSDOF 7
ENDMDL
MODEL 5
REMARK VINA RESULT:      -4.2      2.629      4.617
REMARK  7 active torsions:
REMARK  status: ('A' for Active; 'I' for Inactive)
REMARK    1  A    between atoms: C_2  and  C_3 
REMARK    2  A    between atoms: C_3  and  O_6 
REMARK    3  A    between atoms: C_3  and  C_4 
REMARK    4  A    between atoms: C_7  and  O_6 
REMARK    5  A    between atoms: C_9  and  C_10 
REMARK    6  A    between atoms: N_15  and  C_14 
REMARK    7  A    between atoms: N_20  and  C_19 
REMARK       I    between atoms: C_22  and  N_20 
ROOT
ATOM      1  C   LIG d   1       1.013  83.401 110.969  0.00  0.00     0.161 C 
ATOM      2  C   LIG d   1       0.621  83.897 109.715  0.00  0.00     0.016 C 
ATOM      3  C   LIG d   1       1.504  84.029 108.619  0.00  0.00     0.038 C 
ATOM      4  C   LIG d   1       2.815  83.530 108.659  0.00  0.00     0.028 C 
ATOM      5  C   LIG d   1       3.402  83.482 110.065  0.00  0.00    -0.047 C 
ATOM      6  C   LIG d   1       2.411  82.748 110.998  0.00  0.00     0.091 C 
ENDROOT
BRANCH   1   7
ATOM      7  O   LIG d   1       0.020  82.481 111.463  0.00  0.00    -0.368 OA
BRANCH   7   8
ATOM      8  C   LIG d   1      -1.081  83.066 112.201  0.00  0.00     0.119 C 
BRANCH   8   9
ATOM      9  C   LIG d   1      -0.496  83.704 113.476  0.00  0.00     0.028 C 
ATOM     10  C   LIG d   1      -0.746  85.220 113.541  0.00  0.00     0.006 C 
ENDBRANCH   8   9
BRANCH   8  11
ATOM     11  C   LIG d   1      -2.055  81.993 112.694  0.00  0.00     0.028 C 
ATOM     12  C   LIG d   1      -1.609  80.569 112.325  0.00  0.00     0.006 C 
ENDBRANCH   8  11
ENDBRANCH   7   8
ENDBRANCH   1   7
BRANCH   6  13
ATOM     13  N   LIG d   1       2.870  82.730 112.411  0.00  0.00    -0.311 N 
ATOM     14  C   LIG d   1       3.098  83.833 113.122  0.00  0.00     0.210 C 
ATOM     15  C   LIG d   1       3.585  83.591 114.554  0.00  0.00     0.109 C 
ATOM     16  O   LIG d   1       2.912  84.989 112.713  0.00  0.00    -0.276 OA
ATOM     17  H   LIG d   1       3.017  81.834 112.832  0.00  0.00     0.149 HD
ENDBRANCH   6  13
BRANCH   5  18
ATOM     18  N   LIG d   1       4.715  82.815 109.977  0.00  0.00     0.381 N 
ATOM     19  H   LIG d   1       5.082  82.668 110.896  0.00  0.00    -0.090 HD
ATOM     20  H   LIG d   1       5.349  83.411 109.476  0.00  0.00    -0.090 HD
ATOM     21  H   LIG d   1       4.623  81.943 109.505  0.00  0.00    -0.090 HD
ENDBRANCH   5  18
BRANCH   3  22
ATOM     22  C   LIG d   1       1.091  84.703 107.480  0.00  0.00     0.382 C 
ATOM     23  O   LIG d   1       1.314  84.214 106.346  0.00  0.00    -0.241 OA
ATOM     24  O   LIG d   1       0.536  85.815 107.570  0.00  0.00    -0.241 OA
ENDBRANCH   3  22
TORSDOF 7
ENDMDL
MODEL 6
REMARK VINA RESULT:      -4.0     23.895     26.877
REMARK  7 active torsions:
REMARK  status: ('A' for Active; 'I' for Inactive)
REMARK    1  A    between atoms: C_2  and  C_3 
REMARK    2  A    between atoms: C_3  and  O_6 
REMARK    3  A    between atoms: C_3  and  C_4 
REMARK    4  A    between atoms: C_7  and  O_6 
REMARK    5  A    between atoms: C_9  and  C_10 
REMARK    6  A    between atoms: N_15  and  C_14 
REMARK    7  A    between atoms: N_20  and  C_19 
REMARK       I    between atoms: C_22  and  N_20 
ROOT
ATOM      1  C   LIG d   1     -25.475  85.674 113.715  0.00  0.00     0.161 C 
ATOM      2  C   LIG d   1     -24.336  86.492 113.626  0.00  0.00     0.016 C 
ATOM      3  C   LIG d   1     -23.014  86.000 113.730  0.00  0.00     0.038 C 
ATOM      4  C   LIG d   1     -22.737  84.625 113.780  0.00  0.00     0.028 C 
ATOM      5  C   LIG d   1     -23.870  83.800 114.379  0.00  0.00    -0.047 C 
ATOM      6  C   LIG d   1     -25.189  84.159 113.658  0.00  0.00     0.091 C 
ENDROOT
BRANCH   1   7
ATOM      7  O   LIG d   1     -26.423  86.044 112.695  0.00  0.00    -0.368 OA
BRANCH   7   8
ATOM      8  C   LIG d   1     -27.477  86.950 113.103  0.00  0.00     0.119 C 
BRANCH   8   9
ATOM      9  C   LIG d   1     -28.817  86.331 112.661  0.00  0.00     0.028 C 
ATOM     10  C   LIG d   1     -29.513  85.564 113.798  0.00  0.00     0.006 C 
ENDBRANCH   8   9
BRANCH   8  11
ATOM     11  C   LIG d   1     -27.382  88.286 112.359  0.00  0.00     0.028 C 
ATOM     12  C   LIG d   1     -26.861  89.427 113.247  0.00  0.00     0.006 C 
ENDBRANCH   8  11
ENDBRANCH   7   8
ENDBRANCH   1   7
BRANCH   6  13
ATOM     13  N   LIG d   1     -26.362  83.457 114.240  0.00  0.00    -0.311 N 
ATOM     14  C   LIG d   1     -27.141  82.629 113.545  0.00  0.00     0.210 C 
ATOM     15  C   LIG d   1     -28.309  82.027 114.332  0.00  0.00     0.109 C 
ATOM     16  O   LIG d   1     -26.956  82.312 112.361  0.00  0.00    -0.276 OA
ATOM     17  H   LIG d   1     -26.567  83.633 115.204  0.00  0.00     0.149 HD
ENDBRANCH   6  13
BRANCH   5  18
ATOM     18  N   LIG d   1     -23.505  82.377 114.243  0.00  0.00     0.381 N 
ATOM     19  H   LIG d   1     -22.901  82.256 113.455  0.00  0.00    -0.090 HD
ATOM     20  H   LIG d   1     -24.340  81.841 114.086  0.00  0.00    -0.090 HD
ATOM     21  H   LIG d   1     -23.049  82.061 115.071  0.00  0.00    -0.090 HD
ENDBRANCH   5  18
BRANCH   3  22
ATOM     22  C   LIG d   1     -21.955  86.889 113.826  0.00  0.00     0.382 C 
ATOM     23  O   LIG d   1     -22.081  87.944 114.494  0.00  0.00    -0.241 OA
ATOM     24  O   LIG d   1     -20.891  86.673 113.216  0.00  0.00    -0.241 OA
ENDBRANCH   3  22
TORSDOF 7
ENDMDL
MODEL 7
REMARK VINA RESULT:      -3.8     20.815     22.846
REMARK  7 active torsions:
REMARK  status: ('A' for Active; 'I' for Inactive)
REMARK    1  A    between atoms: C_2  and  C_3 
REMARK    2  A    between atoms: C_3  and  O_6 
REMARK    3  A    between atoms: C_3  and  C_4 
REMARK    4  A    between atoms: C_7  and  O_6 
REMARK    5  A    between atoms: C_9  and  C_10 
REMARK    6  A    between atoms: N_15  and  C_14 
REMARK    7  A    between atoms: N_20  and  C_19 
REMARK       I    between atoms: C_22  and  N_20 
ROOT
ATOM      1  C   LIG d   1       8.757  62.101 109.498  0.00  0.00     0.161 C 
ATOM      2  C   LIG d   1       8.863  62.957 110.607  0.00  0.00     0.016 C 
ATOM      3  C   LIG d   1       8.388  62.622 111.897  0.00  0.00     0.038 C 
ATOM      4  C   LIG d   1       7.908  61.340 112.200  0.00  0.00     0.028 C 
ATOM      5  C   LIG d   1       7.317  60.613 110.996  0.00  0.00    -0.047 C 
ATOM      6  C   LIG d   1       8.337  60.655 109.835  0.00  0.00     0.091 C 
ENDROOT
BRANCH   1   7
ATOM      7  O   LIG d   1       9.994  62.104 108.759  0.00  0.00    -0.368 OA
BRANCH   7   8
ATOM      8  C   LIG d   1       9.952  62.722 107.449  0.00  0.00     0.119 C 
BRANCH   8   9
ATOM      9  C   LIG d   1      10.464  61.684 106.431  0.00  0.00     0.028 C 
ATOM     10  C   LIG d   1       9.366  61.228 105.456  0.00  0.00     0.006 C 
ENDBRANCH   8   9
BRANCH   8  11
ATOM     11  C   LIG d   1      10.929  63.898 107.356  0.00  0.00     0.028 C 
ATOM     12  C   LIG d   1      10.628  64.830 106.172  0.00  0.00     0.006 C 
ENDBRANCH   8  11
ENDBRANCH   7   8
ENDBRANCH   1   7
BRANCH   6  13
ATOM     13  N   LIG d   1       7.805  60.040 108.591  0.00  0.00    -0.311 N 
ATOM     14  C   LIG d   1       8.030  58.774 108.245  0.00  0.00     0.210 C 
ATOM     15  C   LIG d   1       7.406  58.347 106.913  0.00  0.00     0.109 C 
ATOM     16  O   LIG d   1       8.662  57.955 108.930  0.00  0.00    -0.276 OA
ATOM     17  H   LIG d   1       7.255  60.625 107.992  0.00  0.00     0.149 HD
ENDBRANCH   6  13
BRANCH   5  18
ATOM     18  N   LIG d   1       6.983  59.242 111.424  0.00  0.00     0.381 N 
ATOM     19  H   LIG d   1       7.773  58.826 111.876  0.00  0.00    -0.090 HD
ATOM     20  H   LIG d   1       6.760  58.694 110.611  0.00  0.00    -0.090 HD
ATOM     21  H   LIG d   1       6.205  59.258 112.046  0.00  0.00    -0.090 HD
ENDBRANCH   5  18
BRANCH   3  22
ATOM     22  C   LIG d   1       8.355  63.590 112.889  0.00  0.00     0.382 C 
ATOM     23  O   LIG d   1       7.281  64.184 113.149  0.00  0.00    -0.241 OA
ATOM     24  O   LIG d   1       9.394  63.908 113.497  0.00  0.00    -0.241 OA
ENDBRANCH   3  22
TORSDOF 7
ENDMDL
MODEL 8
REMARK VINA RESULT:      -3.8     19.723     22.174
REMARK  7 active torsions:
REMARK  status: ('A' for Active; 'I' for Inactive)
REMARK    1  A    between atoms: C_2  and  C_3 
REMARK    2  A    between atoms: C_3  and  O_6 
REMARK    3  A    between atoms: C_3  and  C_4 
REMARK    4  A    between atoms: C_7  and  O_6 
REMARK    5  A    between atoms: C_9  and  C_10 
REMARK    6  A    between atoms: N_15  and  C_14 
REMARK    7  A    between atoms: N_20  and  C_19 
REMARK       I    between atoms: C_22  and  N_20 
ROOT
ATOM      1  C   LIG d   1       9.280  62.001 109.619  0.00  0.00     0.161 C 
ATOM      2  C   LIG d   1       8.772  60.775 109.158  0.00  0.00     0.016 C 
ATOM      3  C   LIG d   1       7.821  60.009 109.871  0.00  0.00     0.038 C 
ATOM      4  C   LIG d   1       7.197  60.494 111.030  0.00  0.00     0.028 C 
ATOM      5  C   LIG d   1       8.046  61.500 111.800  0.00  0.00    -0.047 C 
ATOM      6  C   LIG d   1       8.528  62.599 110.827  0.00  0.00     0.091 C 
ENDROOT
BRANCH   1   7
ATOM      7  O   LIG d   1       9.324  62.950 108.536  0.00  0.00    -0.368 OA
BRANCH   7   8
ATOM      8  C   LIG d   1      10.602  63.097 107.868  0.00  0.00     0.119 C 
BRANCH   8   9
ATOM      9  C   LIG d   1      11.328  64.292 108.516  0.00  0.00     0.028 C 
ATOM     10  C   LIG d   1      12.472  63.851 109.444  0.00  0.00     0.006 C 
ENDBRANCH   8   9
BRANCH   8  11
ATOM     11  C   LIG d   1      10.421  63.482 106.397  0.00  0.00     0.028 C 
ATOM     12  C   LIG d   1      10.686  64.973 106.134  0.00  0.00     0.006 C 
ENDBRANCH   8  11
ENDBRANCH   7   8
ENDBRANCH   1   7
BRANCH   6  13
ATOM     13  N   LIG d   1       9.435  63.578 111.481  0.00  0.00    -0.311 N 
ATOM     14  C   LIG d   1       9.025  64.751 111.960  0.00  0.00     0.210 C 
ATOM     15  C   LIG d   1      10.127  65.618 112.578  0.00  0.00     0.109 C 
ATOM     16  O   LIG d   1       7.848  65.142 111.961  0.00  0.00    -0.276 OA
ATOM     17  H   LIG d   1      10.402  63.328 111.551  0.00  0.00     0.149 HD
ENDBRANCH   6  13
BRANCH   5  18
ATOM     18  N   LIG d   1       7.222  62.026 112.905  0.00  0.00     0.381 N 
ATOM     19  H   LIG d   1       7.554  62.930 113.174  0.00  0.00    -0.090 HD
ATOM     20  H   LIG d   1       7.306  61.411 113.695  0.00  0.00    -0.090 HD
ATOM     21  H   LIG d   1       6.269  62.085 112.621  0.00  0.00    -0.090 HD
ENDBRANCH   5  18
BRANCH   3  22
ATOM     22  C   LIG d   1       7.516  58.725 109.447  0.00  0.00     0.382 C 
ATOM     23  O   LIG d   1       6.597  58.542 108.613  0.00  0.00    -0.241 OA
ATOM     24  O   LIG d   1       8.118  57.743 109.921  0.00  0.00    -0.241 OA
ENDBRANCH   3  22
TORSDOF 7
ENDMDL
MODEL 9
REMARK VINA RESULT:      -3.7     19.751     22.098
REMARK  7 active torsions:
REMARK  status: ('A' for Active; 'I' for Inactive)
REMARK    1  A    between atoms: C_2  and  C_3 
REMARK    2  A    between atoms: C_3  and  O_6 
REMARK    3  A    between atoms: C_3  and  C_4 
REMARK    4  A    between atoms: C_7  and  O_6 
REMARK    5  A    between atoms: C_9  and  C_10 
REMARK    6  A    between atoms: N_15  and  C_14 
REMARK    7  A    between atoms: N_20  and  C_19 
REMARK       I    between atoms: C_22  and  N_20 
ROOT
ATOM      1  C   LIG d   1       9.471  63.129 110.066  0.00  0.00     0.161 C 
ATOM      2  C   LIG d   1      10.007  64.200 110.800  0.00  0.00     0.016 C 
ATOM      3  C   LIG d   1       9.727  64.423 112.168  0.00  0.00     0.038 C 
ATOM      4  C   LIG d   1       9.008  63.498 112.938  0.00  0.00     0.028 C 
ATOM      5  C   LIG d   1       8.027  62.663 112.122  0.00  0.00    -0.047 C 
ATOM      6  C   LIG d   1       8.774  62.047 110.917  0.00  0.00     0.091 C 
ENDROOT
BRANCH   1   7
ATOM      7  O   LIG d   1      10.498  62.537 109.246  0.00  0.00    -0.368 OA
BRANCH   7   8
ATOM      8  C   LIG d   1      10.315  62.653 107.814  0.00  0.00     0.119 C 
BRANCH   8   9
ATOM      9  C   LIG d   1      10.250  61.225 107.238  0.00  0.00     0.028 C 
ATOM     10  C   LIG d   1      10.870  60.183 108.183  0.00  0.00     0.006 C 
ENDBRANCH   8   9
BRANCH   8  11
ATOM     11  C   LIG d   1      11.531  63.304 107.147  0.00  0.00     0.028 C 
ATOM     12  C   LIG d   1      11.647  64.805 107.455  0.00  0.00     0.006 C 
ENDBRANCH   8  11
ENDBRANCH   7   8
ENDBRANCH   1   7
BRANCH   6  13
ATOM     13  N   LIG d   1       7.869  61.283 110.019  0.00  0.00    -0.311 N 
ATOM     14  C   LIG d   1       7.681  59.968 110.114  0.00  0.00     0.210 C 
ATOM     15  C   LIG d   1       6.722  59.375 109.078  0.00  0.00     0.109 C 
ATOM     16  O   LIG d   1       8.193  59.241 110.979  0.00  0.00    -0.276 OA
ATOM     17  H   LIG d   1       7.389  61.799 109.308  0.00  0.00     0.149 HD
ENDBRANCH   6  13
BRANCH   5  18
ATOM     18  N   LIG d   1       7.448  61.648 113.023  0.00  0.00     0.381 N 
ATOM     19  H   LIG d   1       6.526  61.410 112.716  0.00  0.00    -0.090 HD
ATOM     20  H   LIG d   1       7.382  62.035 113.948  0.00  0.00    -0.090 HD
ATOM     21  H   LIG d   1       8.023  60.835 113.035  0.00  0.00    -0.090 HD
ENDBRANCH   5  18
BRANCH   3  22
ATOM     22  C   LIG d   1      10.136  65.604 112.770  0.00  0.00     0.382 C 
ATOM     23  O   LIG d   1       9.303  66.516 112.991  0.00  0.00    -0.241 OA
ATOM     24  O   LIG d   1      11.335  65.787 113.053  0.00  0.00    -0.241 OA
ENDBRANCH   3  22
TORSDOF 7
ENDMDL
