MODEL 1
REMARK VINA RESULT:      -6.5      0.000      0.000
REMARK  7 active torsions:
REMARK  status: ('A' for Active; 'I' for Inactive)
REMARK    1  A    between atoms: C_2  and  C_3 
REMARK    2  A    between atoms: C_3  and  O_6 
REMARK    3  A    between atoms: C_3  and  C_4 
REMARK    4  A    between atoms: C_7  and  O_6 
REMARK    5  A    between atoms: C_9  and  C_10 
REMARK    6  A    between atoms: N_15  and  C_14 
REMARK    7  A    between atoms: N_20  and  C_19 
REMARK       I    between atoms: C_22  and  N_20 
ROOT
ATOM      1  C   LIG d   1       0.565  82.836 111.126  0.00  0.00     0.161 C 
ATOM      2  C   LIG d   1       1.177  83.229 109.924  0.00  0.00     0.016 C 
ATOM      3  C   LIG d   1       1.522  82.324 108.895  0.00  0.00     0.038 C 
ATOM      4  C   LIG d   1       1.139  80.975 108.934  0.00  0.00     0.028 C 
ATOM      5  C   LIG d   1       0.967  80.435 110.350  0.00  0.00    -0.047 C 
ATOM      6  C   LIG d   1       0.039  81.386 111.140  0.00  0.00     0.091 C 
ENDROOT
BRANCH   1   7
ATOM      7  O   LIG d   1      -0.494  83.756 111.459  0.00  0.00    -0.368 OA
BRANCH   7   8
ATOM      8  C   LIG d   1      -0.088  84.990 112.100  0.00  0.00     0.119 C 
BRANCH   8   9
ATOM      9  C   LIG d   1      -0.624  84.960 113.544  0.00  0.00     0.028 C 
ATOM     10  C   LIG d   1       0.256  84.113 114.479  0.00  0.00     0.006 C 
ENDBRANCH   8   9
BRANCH   8  11
ATOM     11  C   LIG d   1      -0.755  86.204 111.445  0.00  0.00     0.028 C 
ATOM     12  C   LIG d   1      -1.228  85.922 110.010  0.00  0.00     0.006 C 
ENDBRANCH   8  11
ENDBRANCH   7   8
ENDBRANCH   1   7
BRANCH   6  13
ATOM     13  N   LIG d   1      -0.115  80.976 112.560  0.00  0.00    -0.311 N 
ATOM     14  C   LIG d   1      -1.099  80.190 112.994  0.00  0.00     0.210 C 
ATOM     15  C   LIG d   1      -1.084  79.907 114.499  0.00  0.00     0.109 C 
ATOM     16  O   LIG d   1      -1.963  79.673 112.270  0.00  0.00    -0.276 OA
ATOM     17  H   LIG d   1       0.561  81.325 113.211  0.00  0.00     0.149 HD
ENDBRANCH   6  13
BRANCH   5  18
ATOM     18  N   LIG d   1       0.435  79.064 110.242  0.00  0.00     0.381 N 
ATOM     19  H   LIG d   1      -0.565  79.085 110.279  0.00  0.00    -0.090 HD
ATOM     20  H   LIG d   1       0.768  78.524 111.021  0.00  0.00    -0.090 HD
ATOM     21  H   LIG d   1       0.734  78.648 109.388  0.00  0.00    -0.090 HD
ENDBRANCH   5  18
BRANCH   3  22
ATOM     22  C   LIG d   1       2.295  82.759 107.828  0.00  0.00     0.382 C 
ATOM     23  O   LIG d   1       1.762  83.394 106.886  0.00  0.00    -0.241 OA
ATOM     24  O   LIG d   1       3.509  82.486 107.775  0.00  0.00    -0.241 OA
ENDBRANCH   3  22
TORSDOF 7
ENDMDL
MODEL 2
REMARK VINA RESULT:      -6.0      2.521      4.172
REMARK  7 active torsions:
REMARK  status: ('A' for Active; 'I' for Inactive)
REMARK    1  A    between atoms: C_2  and  C_3 
REMARK    2  A    between atoms: C_3  and  O_6 
REMARK    3  A    between atoms: C_3  and  C_4 
REMARK    4  A    between atoms: C_7  and  O_6 
REMARK    5  A    between atoms: C_9  and  C_10 
REMARK    6  A    between atoms: N_15  and  C_14 
REMARK    7  A    between atoms: N_20  and  C_19 
REMARK       I    between atoms: C_22  and  N_20 
ROOT
ATOM      1  C   LIG d   1       0.874  82.150 110.942  0.00  0.00     0.161 C 
ATOM      2  C   LIG d   1       1.620  80.964 110.842  0.00  0.00     0.016 C 
ATOM      3  C   LIG d   1       2.393  80.624 109.708  0.00  0.00     0.038 C 
ATOM      4  C   LIG d   1       2.595  81.525 108.652  0.00  0.00     0.028 C 
ATOM      5  C   LIG d   1       1.457  82.526 108.483  0.00  0.00    -0.047 C 
ATOM      6  C   LIG d   1       1.171  83.195 109.847  0.00  0.00     0.091 C 
ENDROOT
BRANCH   1   7
ATOM      7  O   LIG d   1       1.052  82.730 112.250  0.00  0.00    -0.368 OA
BRANCH   7   8
ATOM      8  C   LIG d   1       0.033  82.416 113.231  0.00  0.00     0.119 C 
BRANCH   8   9
ATOM      9  C   LIG d   1      -1.334  82.525 112.528  0.00  0.00     0.028 C 
ATOM     10  C   LIG d   1      -2.350  81.500 113.061  0.00  0.00     0.006 C 
ENDBRANCH   8   9
BRANCH   8  11
ATOM     11  C   LIG d   1      -0.002  83.461 114.350  0.00  0.00     0.028 C 
ATOM     12  C   LIG d   1      -0.652  84.782 113.912  0.00  0.00     0.006 C 
ENDBRANCH   8  11
ENDBRANCH   7   8
ENDBRANCH   1   7
BRANCH   6  13
ATOM     13  N   LIG d   1       0.015  84.127 109.789  0.00  0.00    -0.311 N 
ATOM     14  C   LIG d   1       0.039  85.358 110.298  0.00  0.00     0.210 C 
ATOM     15  C   LIG d   1      -1.266  86.145 110.149  0.00  0.00     0.109 C 
ATOM     16  O   LIG d   1       1.028  85.883 110.831  0.00  0.00    -0.276 OA
ATOM     17  H   LIG d   1      -0.819  83.793 109.347  0.00  0.00     0.149 HD
ENDBRANCH   6  13
BRANCH   5  18
ATOM     18  N   LIG d   1       1.860  83.488 107.440  0.00  0.00     0.381 N 
ATOM     19  H   LIG d   1       1.972  83.013 106.567  0.00  0.00    -0.090 HD
ATOM     20  H   LIG d   1       2.744  83.892 107.695  0.00  0.00    -0.090 HD
ATOM     21  H   LIG d   1       1.173  84.203 107.352  0.00  0.00    -0.090 HD
ENDBRANCH   5  18
BRANCH   3  22
ATOM     22  C   LIG d   1       2.942  79.355 109.605  0.00  0.00     0.382 C 
ATOM     23  O   LIG d   1       2.253  78.409 109.155  0.00  0.00    -0.241 OA
ATOM     24  O   LIG d   1       4.103  79.135 109.999  0.00  0.00    -0.241 OA
ENDBRANCH   3  22
TORSDOF 7
ENDMDL
MODEL 3
REMARK VINA RESULT:      -5.9      1.205      2.135
REMARK  7 active torsions:
REMARK  status: ('A' for Active; 'I' for Inactive)
REMARK    1  A    between atoms: C_2  and  C_3 
REMARK    2  A    between atoms: C_3  and  O_6 
REMARK    3  A    between atoms: C_3  and  C_4 
REMARK    4  A    between atoms: C_7  and  O_6 
REMARK    5  A    between atoms: C_9  and  C_10 
REMARK    6  A    between atoms: N_15  and  C_14 
REMARK    7  A    between atoms: N_20  and  C_19 
REMARK       I    between atoms: C_22  and  N_20 
ROOT
ATOM      1  C   LIG d   1       1.648  82.393 111.896  0.00  0.00     0.161 C 
ATOM      2  C   LIG d   1       2.481  82.735 110.817  0.00  0.00     0.016 C 
ATOM      3  C   LIG d   1       2.383  82.140 109.539  0.00  0.00     0.038 C 
ATOM      4  C   LIG d   1       1.338  81.264 109.207  0.00  0.00     0.028 C 
ATOM      5  C   LIG d   1       0.777  80.508 110.407  0.00  0.00    -0.047 C 
ATOM      6  C   LIG d   1       0.431  81.521 111.522  0.00  0.00     0.091 C 
ENDROOT
BRANCH   1   7
ATOM      7  O   LIG d   1       1.218  83.587 112.578  0.00  0.00    -0.368 OA
BRANCH   7   8
ATOM      8  C   LIG d   1       0.046  84.244 112.036  0.00  0.00     0.119 C 
BRANCH   8   9
ATOM      9  C   LIG d   1       0.527  85.499 111.281  0.00  0.00     0.028 C 
ATOM     10  C   LIG d   1       0.505  85.309 109.755  0.00  0.00     0.006 C 
ENDBRANCH   8   9
BRANCH   8  11
ATOM     11  C   LIG d   1      -0.866  84.766 113.150  0.00  0.00     0.028 C 
ATOM     12  C   LIG d   1      -0.302  84.501 114.555  0.00  0.00     0.006 C 
ENDBRANCH   8  11
ENDBRANCH   7   8
ENDBRANCH   1   7
BRANCH   6  13
ATOM     13  N   LIG d   1      -0.045  80.857 112.764  0.00  0.00    -0.311 N 
ATOM     14  C   LIG d   1      -1.288  80.973 113.226  0.00  0.00     0.210 C 
ATOM     15  C   LIG d   1      -1.564  80.223 114.533  0.00  0.00     0.109 C 
ATOM     16  O   LIG d   1      -2.197  81.600 112.662  0.00  0.00    -0.276 OA
ATOM     17  H   LIG d   1       0.620  80.303 113.268  0.00  0.00     0.149 HD
ENDBRANCH   6  13
BRANCH   5  18
ATOM     18  N   LIG d   1      -0.392  79.738 109.942  0.00  0.00     0.381 N 
ATOM     19  H   LIG d   1      -0.655  80.042 109.026  0.00  0.00    -0.090 HD
ATOM     20  H   LIG d   1      -1.162  79.909 110.565  0.00  0.00    -0.090 HD
ATOM     21  H   LIG d   1      -0.176  78.765 109.928  0.00  0.00    -0.090 HD
ENDBRANCH   5  18
BRANCH   3  22
ATOM     22  C   LIG d   1       3.360  82.389 108.588  0.00  0.00     0.382 C 
ATOM     23  O   LIG d   1       4.524  82.688 108.948  0.00  0.00    -0.241 OA
ATOM     24  O   LIG d   1       3.082  82.361 107.374  0.00  0.00    -0.241 OA
ENDBRANCH   3  22
TORSDOF 7
ENDMDL
MODEL 4
REMARK VINA RESULT:      -5.8      1.830      4.549
REMARK  7 active torsions:
REMARK  status: ('A' for Active; 'I' for Inactive)
REMARK    1  A    between atoms: C_2  and  C_3 
REMARK    2  A    between atoms: C_3  and  O_6 
REMARK    3  A    between atoms: C_3  and  C_4 
REMARK    4  A    between atoms: C_7  and  O_6 
REMARK    5  A    between atoms: C_9  and  C_10 
REMARK    6  A    between atoms: N_15  and  C_14 
REMARK    7  A    between atoms: N_20  and  C_19 
REMARK       I    between atoms: C_22  and  N_20 
ROOT
ATOM      1  C   LIG d   1       0.286  82.668 111.047  0.00  0.00     0.161 C 
ATOM      2  C   LIG d   1      -0.786  82.271 111.864  0.00  0.00     0.016 C 
ATOM      3  C   LIG d   1      -1.196  80.926 112.012  0.00  0.00     0.038 C 
ATOM      4  C   LIG d   1      -0.461  79.863 111.465  0.00  0.00     0.028 C 
ATOM      5  C   LIG d   1       0.330  80.250 110.221  0.00  0.00    -0.047 C 
ATOM      6  C   LIG d   1       1.168  81.512 110.531  0.00  0.00     0.091 C 
ENDROOT
BRANCH   1   7
ATOM      7  O   LIG d   1       1.092  83.644 111.736  0.00  0.00    -0.368 OA
BRANCH   7   8
ATOM      8  C   LIG d   1       0.884  85.026 111.355  0.00  0.00     0.119 C 
BRANCH   8   9
ATOM      9  C   LIG d   1      -0.112  85.638 112.358  0.00  0.00     0.028 C 
ATOM     10  C   LIG d   1       0.244  85.305 113.817  0.00  0.00     0.006 C 
ENDBRANCH   8   9
BRANCH   8  11
ATOM     11  C   LIG d   1       0.200  85.130 109.988  0.00  0.00     0.028 C 
ATOM     12  C   LIG d   1      -1.157  85.849 110.055  0.00  0.00     0.006 C 
ENDBRANCH   8  11
ENDBRANCH   7   8
ENDBRANCH   1   7
BRANCH   6  13
ATOM     13  N   LIG d   1       1.908  82.007 109.341  0.00  0.00    -0.311 N 
ATOM     14  C   LIG d   1       3.169  81.675 109.071  0.00  0.00     0.210 C 
ATOM     15  C   LIG d   1       3.749  82.313 107.805  0.00  0.00     0.109 C 
ATOM     16  O   LIG d   1       3.852  80.888 109.744  0.00  0.00    -0.276 OA
ATOM     17  H   LIG d   1       1.418  82.626 108.725  0.00  0.00     0.149 HD
ENDBRANCH   6  13
BRANCH   5  18
ATOM     18  N   LIG d   1       1.154  79.088 109.837  0.00  0.00     0.381 N 
ATOM     19  H   LIG d   1       2.122  79.339 109.855  0.00  0.00    -0.090 HD
ATOM     20  H   LIG d   1       0.916  78.816 108.900  0.00  0.00    -0.090 HD
ATOM     21  H   LIG d   1       0.988  78.331 110.463  0.00  0.00    -0.090 HD
ENDBRANCH   5  18
BRANCH   3  22
ATOM     22  C   LIG d   1      -2.376  80.637 112.680  0.00  0.00     0.382 C 
ATOM     23  O   LIG d   1      -2.755  79.446 112.796  0.00  0.00    -0.241 OA
ATOM     24  O   LIG d   1      -3.088  81.554 113.130  0.00  0.00    -0.241 OA
ENDBRANCH   3  22
TORSDOF 7
ENDMDL
MODEL 5
REMARK VINA RESULT:      -5.8      2.509      5.657
REMARK  7 active torsions:
REMARK  status: ('A' for Active; 'I' for Inactive)
REMARK    1  A    between atoms: C_2  and  C_3 
REMARK    2  A    between atoms: C_3  and  O_6 
REMARK    3  A    between atoms: C_3  and  C_4 
REMARK    4  A    between atoms: C_7  and  O_6 
REMARK    5  A    between atoms: C_9  and  C_10 
REMARK    6  A    between atoms: N_15  and  C_14 
REMARK    7  A    between atoms: N_20  and  C_19 
REMARK       I    between atoms: C_22  and  N_20 
ROOT
ATOM      1  C   LIG d   1       1.222  82.058 111.144  0.00  0.00     0.161 C 
ATOM      2  C   LIG d   1       0.221  81.079 111.265  0.00  0.00     0.016 C 
ATOM      3  C   LIG d   1      -0.714  81.049 112.325  0.00  0.00     0.038 C 
ATOM      4  C   LIG d   1      -0.808  82.090 113.261  0.00  0.00     0.028 C 
ATOM      5  C   LIG d   1       0.505  82.837 113.470  0.00  0.00    -0.047 C 
ATOM      6  C   LIG d   1       1.064  83.264 112.094  0.00  0.00     0.091 C 
ENDROOT
BRANCH   1   7
ATOM      7  O   LIG d   1       1.305  82.505 109.776  0.00  0.00    -0.368 OA
BRANCH   7   8
ATOM      8  C   LIG d   1       2.242  81.795 108.930  0.00  0.00     0.119 C 
BRANCH   8   9
ATOM      9  C   LIG d   1       3.519  81.551 109.756  0.00  0.00     0.028 C 
ATOM     10  C   LIG d   1       4.612  82.594 109.469  0.00  0.00     0.006 C 
ENDBRANCH   8   9
BRANCH   8  11
ATOM     11  C   LIG d   1       2.684  82.656 107.743  0.00  0.00     0.028 C 
ATOM     12  C   LIG d   1       1.520  83.423 107.097  0.00  0.00     0.006 C 
ENDBRANCH   8  11
ENDBRANCH   7   8
ENDBRANCH   1   7
BRANCH   6  13
ATOM     13  N   LIG d   1       2.390  83.928 112.202  0.00  0.00    -0.311 N 
ATOM     14  C   LIG d   1       2.616  85.182 111.814  0.00  0.00     0.210 C 
ATOM     15  C   LIG d   1       4.059  85.664 111.994  0.00  0.00     0.109 C 
ATOM     16  O   LIG d   1       1.751  85.951 111.368  0.00  0.00    -0.276 OA
ATOM     17  H   LIG d   1       3.141  83.386 112.582  0.00  0.00     0.149 HD
ENDBRANCH   6  13
BRANCH   5  18
ATOM     18  N   LIG d   1       0.231  83.979 114.363  0.00  0.00     0.381 N 
ATOM     19  H   LIG d   1       0.723  83.860 115.226  0.00  0.00    -0.090 HD
ATOM     20  H   LIG d   1      -0.753  84.006 114.562  0.00  0.00    -0.090 HD
ATOM     21  H   LIG d   1       0.513  84.829 113.926  0.00  0.00    -0.090 HD
ENDBRANCH   5  18
BRANCH   3  22
ATOM     22  C   LIG d   1      -1.542  79.948 112.479  0.00  0.00     0.382 C 
ATOM     23  O   LIG d   1      -2.312  79.876 113.468  0.00  0.00    -0.241 OA
ATOM     24  O   LIG d   1      -1.497  79.005 111.667  0.00  0.00    -0.241 OA
ENDBRANCH   3  22
TORSDOF 7
ENDMDL
MODEL 6
REMARK VINA RESULT:      -5.7      1.918      4.607
REMARK  7 active torsions:
REMARK  status: ('A' for Active; 'I' for Inactive)
REMARK    1  A    between atoms: C_2  and  C_3 
REMARK    2  A    between atoms: C_3  and  O_6 
REMARK    3  A    between atoms: C_3  and  C_4 
REMARK    4  A    between atoms: C_7  and  O_6 
REMARK    5  A    between atoms: C_9  and  C_10 
REMARK    6  A    between atoms: N_15  and  C_14 
REMARK    7  A    between atoms: N_20  and  C_19 
REMARK       I    between atoms: C_22  and  N_20 
ROOT
ATOM      1  C   LIG d   1       0.456  81.842 111.302  0.00  0.00     0.161 C 
ATOM      2  C   LIG d   1       0.343  82.995 110.508  0.00  0.00     0.016 C 
ATOM      3  C   LIG d   1      -0.115  84.238 111.001  0.00  0.00     0.038 C 
ATOM      4  C   LIG d   1      -0.350  84.453 112.367  0.00  0.00     0.028 C 
ATOM      5  C   LIG d   1      -0.733  83.185 113.122  0.00  0.00    -0.047 C 
ATOM      6  C   LIG d   1       0.310  82.085 112.819  0.00  0.00     0.091 C 
ENDROOT
BRANCH   1   7
ATOM      7  O   LIG d   1       1.702  81.174 111.020  0.00  0.00    -0.368 OA
BRANCH   7   8
ATOM      8  C   LIG d   1       2.037  81.017 109.619  0.00  0.00     0.119 C 
BRANCH   8   9
ATOM      9  C   LIG d   1       1.568  79.615 109.184  0.00  0.00     0.028 C 
ATOM     10  C   LIG d   1       2.627  78.533 109.450  0.00  0.00     0.006 C 
ENDBRANCH   8   9
BRANCH   8  11
ATOM     11  C   LIG d   1       3.554  81.021 109.406  0.00  0.00     0.028 C 
ATOM     12  C   LIG d   1       3.993  81.950 108.263  0.00  0.00     0.006 C 
ENDBRANCH   8  11
ENDBRANCH   7   8
ENDBRANCH   1   7
BRANCH   6  13
ATOM     13  N   LIG d   1      -0.035  80.786 113.452  0.00  0.00    -0.311 N 
ATOM     14  C   LIG d   1      -1.207  80.176 113.282  0.00  0.00     0.210 C 
ATOM     15  C   LIG d   1      -1.365  78.855 114.041  0.00  0.00     0.109 C 
ATOM     16  O   LIG d   1      -2.119  80.588 112.549  0.00  0.00    -0.276 OA
ATOM     17  H   LIG d   1       0.659  80.365 114.038  0.00  0.00     0.149 HD
ENDBRANCH   6  13
BRANCH   5  18
ATOM     18  N   LIG d   1      -0.814  83.526 114.555  0.00  0.00     0.381 N 
ATOM     19  H   LIG d   1      -0.224  82.914 115.083  0.00  0.00    -0.090 HD
ATOM     20  H   LIG d   1      -1.760  83.399 114.867  0.00  0.00    -0.090 HD
ATOM     21  H   LIG d   1      -0.534  84.472 114.696  0.00  0.00    -0.090 HD
ENDBRANCH   5  18
BRANCH   3  22
ATOM     22  C   LIG d   1      -0.381  85.272 110.116  0.00  0.00     0.382 C 
ATOM     23  O   LIG d   1       0.315  85.407 109.081  0.00  0.00    -0.241 OA
ATOM     24  O   LIG d   1      -1.280  86.099 110.362  0.00  0.00    -0.241 OA
ENDBRANCH   3  22
TORSDOF 7
ENDMDL
MODEL 7
REMARK VINA RESULT:      -5.5      1.798      2.037
REMARK  7 active torsions:
REMARK  status: ('A' for Active; 'I' for Inactive)
REMARK    1  A    between atoms: C_2  and  C_3 
REMARK    2  A    between atoms: C_3  and  O_6 
REMARK    3  A    between atoms: C_3  and  C_4 
REMARK    4  A    between atoms: C_7  and  O_6 
REMARK    5  A    between atoms: C_9  and  C_10 
REMARK    6  A    between atoms: N_15  and  C_14 
REMARK    7  A    between atoms: N_20  and  C_19 
REMARK       I    between atoms: C_22  and  N_20 
ROOT
ATOM      1  C   LIG d   1       1.591  82.311 111.541  0.00  0.00     0.161 C 
ATOM      2  C   LIG d   1       2.379  82.588 110.411  0.00  0.00     0.016 C 
ATOM      3  C   LIG d   1       2.209  81.941 109.166  0.00  0.00     0.038 C 
ATOM      4  C   LIG d   1       1.132  81.075 108.921  0.00  0.00     0.028 C 
ATOM      5  C   LIG d   1       0.613  80.384 110.177  0.00  0.00    -0.047 C 
ATOM      6  C   LIG d   1       0.340  81.451 111.261  0.00  0.00     0.091 C 
ENDROOT
BRANCH   1   7
ATOM      7  O   LIG d   1       1.217  83.542 112.190  0.00  0.00    -0.368 OA
BRANCH   7   8
ATOM      8  C   LIG d   1       2.035  83.942 113.317  0.00  0.00     0.119 C 
BRANCH   8   9
ATOM      9  C   LIG d   1       1.117  84.012 114.553  0.00  0.00     0.028 C 
ATOM     10  C   LIG d   1       0.198  85.245 114.533  0.00  0.00     0.006 C 
ENDBRANCH   8   9
BRANCH   8  11
ATOM     11  C   LIG d   1       2.578  85.362 113.135  0.00  0.00     0.028 C 
ATOM     12  C   LIG d   1       3.925  85.395 112.395  0.00  0.00     0.006 C 
ENDBRANCH   8  11
ENDBRANCH   7   8
ENDBRANCH   1   7
BRANCH   6  13
ATOM     13  N   LIG d   1      -0.090  80.851 112.551  0.00  0.00    -0.311 N 
ATOM     14  C   LIG d   1      -1.148  81.276 113.241  0.00  0.00     0.210 C 
ATOM     15  C   LIG d   1      -1.404  80.532 114.555  0.00  0.00     0.109 C 
ATOM     16  O   LIG d   1      -1.916  82.177 112.873  0.00  0.00    -0.276 OA
ATOM     17  H   LIG d   1       0.458  80.093 112.908  0.00  0.00     0.149 HD
ENDBRANCH   6  13
BRANCH   5  18
ATOM     18  N   LIG d   1      -0.592  79.621 109.800  0.00  0.00     0.381 N 
ATOM     19  H   LIG d   1      -0.335  78.843 109.226  0.00  0.00    -0.090 HD
ATOM     20  H   LIG d   1      -1.201  80.217 109.269  0.00  0.00    -0.090 HD
ATOM     21  H   LIG d   1      -1.061  79.299 110.618  0.00  0.00    -0.090 HD
ENDBRANCH   5  18
BRANCH   3  22
ATOM     22  C   LIG d   1       3.145  82.127 108.161  0.00  0.00     0.382 C 
ATOM     23  O   LIG d   1       2.868  82.846 107.170  0.00  0.00    -0.241 OA
ATOM     24  O   LIG d   1       4.248  81.551 108.210  0.00  0.00    -0.241 OA
ENDBRANCH   3  22
TORSDOF 7
ENDMDL
MODEL 8
REMARK VINA RESULT:      -5.5      2.691      4.220
REMARK  7 active torsions:
REMARK  status: ('A' for Active; 'I' for Inactive)
REMARK    1  A    between atoms: C_2  and  C_3 
REMARK    2  A    between atoms: C_3  and  O_6 
REMARK    3  A    between atoms: C_3  and  C_4 
REMARK    4  A    between atoms: C_7  and  O_6 
REMARK    5  A    between atoms: C_9  and  C_10 
REMARK    6  A    between atoms: N_15  and  C_14 
REMARK    7  A    between atoms: N_20  and  C_19 
REMARK       I    between atoms: C_22  and  N_20 
ROOT
ATOM      1  C   LIG d   1       1.230  83.328 110.598  0.00  0.00     0.161 C 
ATOM      2  C   LIG d   1       1.482  83.520 109.229  0.00  0.00     0.016 C 
ATOM      3  C   LIG d   1       0.932  84.584 108.479  0.00  0.00     0.038 C 
ATOM      4  C   LIG d   1       0.209  85.623 109.085  0.00  0.00     0.028 C 
ATOM      5  C   LIG d   1      -0.492  85.201 110.372  0.00  0.00    -0.047 C 
ATOM      6  C   LIG d   1       0.534  84.512 111.300  0.00  0.00     0.091 C 
ENDROOT
BRANCH   1   7
ATOM      7  O   LIG d   1       2.456  82.992 111.278  0.00  0.00    -0.368 OA
BRANCH   7   8
ATOM      8  C   LIG d   1       3.631  83.740 110.879  0.00  0.00     0.119 C 
BRANCH   8   9
ATOM      9  C   LIG d   1       4.702  82.722 110.442  0.00  0.00     0.028 C 
ATOM     10  C   LIG d   1       4.389  82.092 109.074  0.00  0.00     0.006 C 
ENDBRANCH   8   9
BRANCH   8  11
ATOM     11  C   LIG d   1       4.244  84.489 112.066  0.00  0.00     0.028 C 
ATOM     12  C   LIG d   1       3.888  85.984 112.075  0.00  0.00     0.006 C 
ENDBRANCH   8  11
ENDBRANCH   7   8
ENDBRANCH   1   7
BRANCH   6  13
ATOM     13  N   LIG d   1      -0.087  83.994 112.547  0.00  0.00    -0.311 N 
ATOM     14  C   LIG d   1      -0.912  82.948 112.575  0.00  0.00     0.210 C 
ATOM     15  C   LIG d   1      -1.457  82.592 113.962  0.00  0.00     0.109 C 
ATOM     16  O   LIG d   1      -1.218  82.262 111.588  0.00  0.00    -0.276 OA
ATOM     17  H   LIG d   1       0.132  84.472 113.399  0.00  0.00     0.149 HD
ENDBRANCH   6  13
BRANCH   5  18
ATOM     18  N   LIG d   1      -1.091  86.410 110.969  0.00  0.00     0.381 N 
ATOM     19  H   LIG d   1      -0.901  86.432 111.951  0.00  0.00    -0.090 HD
ATOM     20  H   LIG d   1      -2.088  86.376 110.842  0.00  0.00    -0.090 HD
ATOM     21  H   LIG d   1      -0.721  87.225 110.533  0.00  0.00    -0.090 HD
ENDBRANCH   5  18
BRANCH   3  22
ATOM     22  C   LIG d   1       1.070  84.596 107.099  0.00  0.00     0.382 C 
ATOM     23  O   LIG d   1       1.355  83.538 106.489  0.00  0.00    -0.241 OA
ATOM     24  O   LIG d   1       0.956  85.660 106.462  0.00  0.00    -0.241 OA
ENDBRANCH   3  22
TORSDOF 7
ENDMDL
MODEL 9
REMARK VINA RESULT:      -5.4      2.371      4.443
REMARK  7 active torsions:
REMARK  status: ('A' for Active; 'I' for Inactive)
REMARK    1  A    between atoms: C_2  and  C_3 
REMARK    2  A    between atoms: C_3  and  O_6 
REMARK    3  A    between atoms: C_3  and  C_4 
REMARK    4  A    between atoms: C_7  and  O_6 
REMARK    5  A    between atoms: C_9  and  C_10 
REMARK    6  A    between atoms: N_15  and  C_14 
REMARK    7  A    between atoms: N_20  and  C_19 
REMARK       I    between atoms: C_22  and  N_20 
ROOT
ATOM      1  C   LIG d   1       1.326  83.156 110.411  0.00  0.00     0.161 C 
ATOM      2  C   LIG d   1       1.526  83.400 109.042  0.00  0.00     0.016 C 
ATOM      3  C   LIG d   1       1.028  84.543 108.375  0.00  0.00     0.038 C 
ATOM      4  C   LIG d   1       0.420  85.600 109.068  0.00  0.00     0.028 C 
ATOM      5  C   LIG d   1      -0.250  85.167 110.367  0.00  0.00    -0.047 C 
ATOM      6  C   LIG d   1       0.761  84.352 111.206  0.00  0.00     0.091 C 
ENDROOT
BRANCH   1   7
ATOM      7  O   LIG d   1       2.552  82.691 111.009  0.00  0.00    -0.368 OA
BRANCH   7   8
ATOM      8  C   LIG d   1       2.773  81.259 110.979  0.00  0.00     0.119 C 
BRANCH   8   9
ATOM      9  C   LIG d   1       3.892  80.985 109.956  0.00  0.00     0.028 C 
ATOM     10  C   LIG d   1       4.698  82.250 109.615  0.00  0.00     0.006 C 
ENDBRANCH   8   9
BRANCH   8  11
ATOM     11  C   LIG d   1       1.545  80.517 110.445  0.00  0.00     0.028 C 
ATOM     12  C   LIG d   1       1.891  79.515 109.332  0.00  0.00     0.006 C 
ENDBRANCH   8  11
ENDBRANCH   7   8
ENDBRANCH   1   7
BRANCH   6  13
ATOM     13  N   LIG d   1       0.160  83.817 112.456  0.00  0.00    -0.311 N 
ATOM     14  C   LIG d   1      -0.836  82.934 112.471  0.00  0.00     0.210 C 
ATOM     15  C   LIG d   1      -1.321  82.529 113.867  0.00  0.00     0.109 C 
ATOM     16  O   LIG d   1      -1.343  82.422 111.461  0.00  0.00    -0.276 OA
ATOM     17  H   LIG d   1       0.532  84.156 113.321  0.00  0.00     0.149 HD
ENDBRANCH   6  13
BRANCH   5  18
ATOM     18  N   LIG d   1      -0.721  86.384 111.053  0.00  0.00     0.381 N 
ATOM     19  H   LIG d   1      -1.700  86.307 111.247  0.00  0.00    -0.090 HD
ATOM     20  H   LIG d   1      -0.582  87.174 110.447  0.00  0.00    -0.090 HD
ATOM     21  H   LIG d   1      -0.216  86.515 111.902  0.00  0.00    -0.090 HD
ENDBRANCH   5  18
BRANCH   3  22
ATOM     22  C   LIG d   1       1.101  84.617 106.992  0.00  0.00     0.382 C 
ATOM     23  O   LIG d   1       1.370  83.591 106.322  0.00  0.00    -0.241 OA
ATOM     24  O   LIG d   1       0.945  85.707 106.409  0.00  0.00    -0.241 OA
ENDBRANCH   3  22
TORSDOF 7
ENDMDL
