MODEL 1
REMARK VINA RESULT:      -4.9      0.000      0.000
REMARK  7 active torsions:
REMARK  status: ('A' for Active; 'I' for Inactive)
REMARK    1  A    between atoms: C_2  and  C_3 
REMARK    2  A    between atoms: C_3  and  O_6 
REMARK    3  A    between atoms: C_3  and  C_4 
REMARK    4  A    between atoms: C_7  and  O_6 
REMARK    5  A    between atoms: C_9  and  C_10 
REMARK    6  A    between atoms: N_15  and  C_14 
REMARK    7  A    between atoms: N_20  and  C_19 
REMARK       I    between atoms: C_22  and  N_20 
ROOT
ATOM      1  C   LIG d   1      -5.247  92.886 119.615  0.00  0.00     0.161 C 
ATOM      2  C   LIG d   1      -4.127  92.176 119.152  0.00  0.00     0.016 C 
ATOM      3  C   LIG d   1      -3.989  91.723 117.819  0.00  0.00     0.038 C 
ATOM      4  C   LIG d   1      -4.901  92.084 116.816  0.00  0.00     0.028 C 
ATOM      5  C   LIG d   1      -6.302  92.372 117.345  0.00  0.00    -0.047 C 
ATOM      6  C   LIG d   1      -6.200  93.385 118.508  0.00  0.00     0.091 C 
ENDROOT
BRANCH   1   7
ATOM      7  O   LIG d   1      -4.821  93.987 120.442  0.00  0.00    -0.368 OA
BRANCH   7   8
ATOM      8  C   LIG d   1      -4.335  95.159 119.742  0.00  0.00     0.119 C 
BRANCH   8   9
ATOM      9  C   LIG d   1      -2.827  95.281 120.036  0.00  0.00     0.028 C 
ATOM     10  C   LIG d   1      -1.968  95.136 118.768  0.00  0.00     0.006 C 
ENDBRANCH   8   9
BRANCH   8  11
ATOM     11  C   LIG d   1      -4.962  96.440 120.298  0.00  0.00     0.028 C 
ATOM     12  C   LIG d   1      -5.853  96.184 121.524  0.00  0.00     0.006 C 
ENDBRANCH   8  11
ENDBRANCH   7   8
ENDBRANCH   1   7
BRANCH   6  13
ATOM     13  N   LIG d   1      -7.518  93.658 119.139  0.00  0.00    -0.311 N 
ATOM     14  C   LIG d   1      -8.171  94.810 119.003  0.00  0.00     0.210 C 
ATOM     15  C   LIG d   1      -9.505  94.890 119.752  0.00  0.00     0.109 C 
ATOM     16  O   LIG d   1      -7.788  95.762 118.306  0.00  0.00    -0.276 OA
ATOM     17  H   LIG d   1      -7.917  92.928 119.696  0.00  0.00     0.149 HD
ENDBRANCH   6  13
BRANCH   5  18
ATOM     18  N   LIG d   1      -7.111  92.867 116.216  0.00  0.00     0.381 N 
ATOM     19  H   LIG d   1      -6.636  93.623 115.764  0.00  0.00    -0.090 HD
ATOM     20  H   LIG d   1      -7.987  93.212 116.570  0.00  0.00    -0.090 HD
ATOM     21  H   LIG d   1      -7.275  92.132 115.564  0.00  0.00    -0.090 HD
ENDBRANCH   5  18
BRANCH   3  22
ATOM     22  C   LIG d   1      -2.950  90.867 117.489  0.00  0.00     0.382 C 
ATOM     23  O   LIG d   1      -1.767  91.284 117.499  0.00  0.00    -0.241 OA
ATOM     24  O   LIG d   1      -3.185  89.695 117.137  0.00  0.00    -0.241 OA
ENDBRANCH   3  22
TORSDOF 7
ENDMDL
MODEL 2
REMARK VINA RESULT:      -4.7      1.211      1.927
REMARK  7 active torsions:
REMARK  status: ('A' for Active; 'I' for Inactive)
REMARK    1  A    between atoms: C_2  and  C_3 
REMARK    2  A    between atoms: C_3  and  O_6 
REMARK    3  A    between atoms: C_3  and  C_4 
REMARK    4  A    between atoms: C_7  and  O_6 
REMARK    5  A    between atoms: C_9  and  C_10 
REMARK    6  A    between atoms: N_15  and  C_14 
REMARK    7  A    between atoms: N_20  and  C_19 
REMARK       I    between atoms: C_22  and  N_20 
ROOT
ATOM      1  C   LIG d   1      -5.318  92.953 119.217  0.00  0.00     0.161 C 
ATOM      2  C   LIG d   1      -4.162  92.223 118.893  0.00  0.00     0.016 C 
ATOM      3  C   LIG d   1      -3.964  91.595 117.642  0.00  0.00     0.038 C 
ATOM      4  C   LIG d   1      -4.849  91.781 116.570  0.00  0.00     0.028 C 
ATOM      5  C   LIG d   1      -6.276  92.093 117.010  0.00  0.00    -0.047 C 
ATOM      6  C   LIG d   1      -6.245  93.260 118.023  0.00  0.00     0.091 C 
ENDROOT
BRANCH   1   7
ATOM      7  O   LIG d   1      -4.952  94.171 119.895  0.00  0.00    -0.368 OA
BRANCH   7   8
ATOM      8  C   LIG d   1      -5.112  94.173 121.335  0.00  0.00     0.119 C 
BRANCH   8   9
ATOM      9  C   LIG d   1      -6.143  93.083 121.687  0.00  0.00     0.028 C 
ATOM     10  C   LIG d   1      -7.433  93.667 122.287  0.00  0.00     0.006 C 
ENDBRANCH   8   9
BRANCH   8  11
ATOM     11  C   LIG d   1      -5.727  95.486 121.826  0.00  0.00     0.028 C 
ATOM     12  C   LIG d   1      -5.225  96.709 121.042  0.00  0.00     0.006 C 
ENDBRANCH   8  11
ENDBRANCH   7   8
ENDBRANCH   1   7
BRANCH   6  13
ATOM     13  N   LIG d   1      -7.591  93.574 118.568  0.00  0.00    -0.311 N 
ATOM     14  C   LIG d   1      -8.060  94.814 118.696  0.00  0.00     0.210 C 
ATOM     15  C   LIG d   1      -9.465  94.916 119.299  0.00  0.00     0.109 C 
ATOM     16  O   LIG d   1      -7.459  95.838 118.337  0.00  0.00    -0.276 OA
ATOM     17  H   LIG d   1      -8.159  92.800 118.854  0.00  0.00     0.149 HD
ENDBRANCH   6  13
BRANCH   5  18
ATOM     18  N   LIG d   1      -7.059  92.400 115.798  0.00  0.00     0.381 N 
ATOM     19  H   LIG d   1      -7.587  91.595 115.523  0.00  0.00    -0.090 HD
ATOM     20  H   LIG d   1      -6.427  92.632 115.052  0.00  0.00    -0.090 HD
ATOM     21  H   LIG d   1      -7.673  93.165 115.973  0.00  0.00    -0.090 HD
ENDBRANCH   5  18
BRANCH   3  22
ATOM     22  C   LIG d   1      -2.889  90.736 117.467  0.00  0.00     0.382 C 
ATOM     23  O   LIG d   1      -1.717  91.182 117.507  0.00  0.00    -0.241 OA
ATOM     24  O   LIG d   1      -3.078  89.529 117.225  0.00  0.00    -0.241 OA
ENDBRANCH   3  22
TORSDOF 7
ENDMDL
MODEL 3
REMARK VINA RESULT:      -4.7      1.708      2.687
REMARK  7 active torsions:
REMARK  status: ('A' for Active; 'I' for Inactive)
REMARK    1  A    between atoms: C_2  and  C_3 
REMARK    2  A    between atoms: C_3  and  O_6 
REMARK    3  A    between atoms: C_3  and  C_4 
REMARK    4  A    between atoms: C_7  and  O_6 
REMARK    5  A    between atoms: C_9  and  C_10 
REMARK    6  A    between atoms: N_15  and  C_14 
REMARK    7  A    between atoms: N_20  and  C_19 
REMARK       I    between atoms: C_22  and  N_20 
ROOT
ATOM      1  C   LIG d   1      -4.543  93.601 119.056  0.00  0.00     0.161 C 
ATOM      2  C   LIG d   1      -4.189  92.615 118.121  0.00  0.00     0.016 C 
ATOM      3  C   LIG d   1      -5.074  92.125 117.133  0.00  0.00     0.038 C 
ATOM      4  C   LIG d   1      -6.334  92.702 116.915  0.00  0.00     0.028 C 
ATOM      5  C   LIG d   1      -6.924  93.357 118.159  0.00  0.00    -0.047 C 
ATOM      6  C   LIG d   1      -5.877  94.321 118.763  0.00  0.00     0.091 C 
ENDROOT
BRANCH   1   7
ATOM      7  O   LIG d   1      -3.474  94.560 119.183  0.00  0.00    -0.368 OA
BRANCH   7   8
ATOM      8  C   LIG d   1      -2.151  94.090 118.827  0.00  0.00     0.119 C 
BRANCH   8   9
ATOM      9  C   LIG d   1      -1.304  94.075 120.115  0.00  0.00     0.028 C 
ATOM     10  C   LIG d   1      -1.284  92.693 120.789  0.00  0.00     0.006 C 
ENDBRANCH   8   9
BRANCH   8  11
ATOM     11  C   LIG d   1      -1.444  95.071 117.888  0.00  0.00     0.028 C 
ATOM     12  C   LIG d   1      -0.481  96.014 118.626  0.00  0.00     0.006 C 
ENDBRANCH   8  11
ENDBRANCH   7   8
ENDBRANCH   1   7
BRANCH   6  13
ATOM     13  N   LIG d   1      -6.341  94.941 120.031  0.00  0.00    -0.311 N 
ATOM     14  C   LIG d   1      -6.425  96.257 120.216  0.00  0.00     0.210 C 
ATOM     15  C   LIG d   1      -6.909  96.685 121.605  0.00  0.00     0.109 C 
ATOM     16  O   LIG d   1      -6.175  97.110 119.351  0.00  0.00    -0.276 OA
ATOM     17  H   LIG d   1      -6.594  94.321 120.776  0.00  0.00     0.149 HD
ENDBRANCH   6  13
BRANCH   5  18
ATOM     18  N   LIG d   1      -8.170  94.035 117.758  0.00  0.00     0.381 N 
ATOM     19  H   LIG d   1      -8.824  93.364 117.408  0.00  0.00    -0.090 HD
ATOM     20  H   LIG d   1      -7.963  94.687 117.022  0.00  0.00    -0.090 HD
ATOM     21  H   LIG d   1      -8.563  94.516 118.537  0.00  0.00    -0.090 HD
ENDBRANCH   5  18
BRANCH   3  22
ATOM     22  C   LIG d   1      -4.716  91.020 116.376  0.00  0.00     0.382 C 
ATOM     23  O   LIG d   1      -3.622  90.443 116.588  0.00  0.00    -0.241 OA
ATOM     24  O   LIG d   1      -5.452  90.620 115.454  0.00  0.00    -0.241 OA
ENDBRANCH   3  22
TORSDOF 7
ENDMDL
MODEL 4
REMARK VINA RESULT:      -4.7      1.399      1.814
REMARK  7 active torsions:
REMARK  status: ('A' for Active; 'I' for Inactive)
REMARK    1  A    between atoms: C_2  and  C_3 
REMARK    2  A    between atoms: C_3  and  O_6 
REMARK    3  A    between atoms: C_3  and  C_4 
REMARK    4  A    between atoms: C_7  and  O_6 
REMARK    5  A    between atoms: C_9  and  C_10 
REMARK    6  A    between atoms: N_15  and  C_14 
REMARK    7  A    between atoms: N_20  and  C_19 
REMARK       I    between atoms: C_22  and  N_20 
ROOT
ATOM      1  C   LIG d   1      -4.964  92.954 119.711  0.00  0.00     0.161 C 
ATOM      2  C   LIG d   1      -4.408  92.161 118.693  0.00  0.00     0.016 C 
ATOM      3  C   LIG d   1      -5.014  91.981 117.429  0.00  0.00     0.038 C 
ATOM      4  C   LIG d   1      -6.149  92.708 117.040  0.00  0.00     0.028 C 
ATOM      5  C   LIG d   1      -7.025  93.135 118.212  0.00  0.00    -0.047 C 
ATOM      6  C   LIG d   1      -6.144  93.843 119.266  0.00  0.00     0.091 C 
ENDROOT
BRANCH   1   7
ATOM      7  O   LIG d   1      -3.935  93.756 120.323  0.00  0.00    -0.368 OA
BRANCH   7   8
ATOM      8  C   LIG d   1      -3.453  94.878 119.542  0.00  0.00     0.119 C 
BRANCH   8   9
ATOM      9  C   LIG d   1      -1.935  94.690 119.351  0.00  0.00     0.028 C 
ATOM     10  C   LIG d   1      -1.564  94.357 117.896  0.00  0.00     0.006 C 
ENDBRANCH   8   9
BRANCH   8  11
ATOM     11  C   LIG d   1      -3.605  96.196 120.307  0.00  0.00     0.028 C 
ATOM     12  C   LIG d   1      -3.392  97.430 119.416  0.00  0.00     0.006 C 
ENDBRANCH   8  11
ENDBRANCH   7   8
ENDBRANCH   1   7
BRANCH   6  13
ATOM     13  N   LIG d   1      -6.908  94.219 120.484  0.00  0.00    -0.311 N 
ATOM     14  C   LIG d   1      -7.462  95.417 120.662  0.00  0.00     0.210 C 
ATOM     15  C   LIG d   1      -8.189  95.602 121.998  0.00  0.00     0.109 C 
ATOM     16  O   LIG d   1      -7.449  96.333 119.826  0.00  0.00    -0.276 OA
ATOM     17  H   LIG d   1      -6.995  93.525 121.200  0.00  0.00     0.149 HD
ENDBRANCH   6  13
BRANCH   5  18
ATOM     18  N   LIG d   1      -8.094  94.000 117.677  0.00  0.00     0.381 N 
ATOM     19  H   LIG d   1      -8.969  93.756 118.097  0.00  0.00    -0.090 HD
ATOM     20  H   LIG d   1      -8.167  93.852 116.686  0.00  0.00    -0.090 HD
ATOM     21  H   LIG d   1      -7.884  94.956 117.863  0.00  0.00    -0.090 HD
ENDBRANCH   5  18
BRANCH   3  22
ATOM     22  C   LIG d   1      -4.506  91.035 116.552  0.00  0.00     0.382 C 
ATOM     23  O   LIG d   1      -5.201  90.638 115.586  0.00  0.00    -0.241 OA
ATOM     24  O   LIG d   1      -3.378  90.540 116.740  0.00  0.00    -0.241 OA
ENDBRANCH   3  22
TORSDOF 7
ENDMDL
MODEL 5
REMARK VINA RESULT:      -4.6      1.896      2.975
REMARK  7 active torsions:
REMARK  status: ('A' for Active; 'I' for Inactive)
REMARK    1  A    between atoms: C_2  and  C_3 
REMARK    2  A    between atoms: C_3  and  O_6 
REMARK    3  A    between atoms: C_3  and  C_4 
REMARK    4  A    between atoms: C_7  and  O_6 
REMARK    5  A    between atoms: C_9  and  C_10 
REMARK    6  A    between atoms: N_15  and  C_14 
REMARK    7  A    between atoms: N_20  and  C_19 
REMARK       I    between atoms: C_22  and  N_20 
ROOT
ATOM      1  C   LIG d   1      -4.917  92.756 119.138  0.00  0.00     0.161 C 
ATOM      2  C   LIG d   1      -5.040  91.906 118.026  0.00  0.00     0.016 C 
ATOM      3  C   LIG d   1      -5.984  92.107 116.993  0.00  0.00     0.038 C 
ATOM      4  C   LIG d   1      -6.772  93.265 116.925  0.00  0.00     0.028 C 
ATOM      5  C   LIG d   1      -7.038  93.898 118.286  0.00  0.00    -0.047 C 
ATOM      6  C   LIG d   1      -5.692  94.085 119.024  0.00  0.00     0.091 C 
ENDROOT
BRANCH   1   7
ATOM      7  O   LIG d   1      -3.523  93.010 119.406  0.00  0.00    -0.368 OA
BRANCH   7   8
ATOM      8  C   LIG d   1      -2.938  94.142 118.717  0.00  0.00     0.119 C 
BRANCH   8   9
ATOM      9  C   LIG d   1      -1.888  93.591 117.732  0.00  0.00     0.028 C 
ATOM     10  C   LIG d   1      -1.252  92.281 118.225  0.00  0.00     0.006 C 
ENDBRANCH   8   9
BRANCH   8  11
ATOM     11  C   LIG d   1      -2.157  95.039 119.681  0.00  0.00     0.028 C 
ATOM     12  C   LIG d   1      -2.210  94.541 121.134  0.00  0.00     0.006 C 
ENDBRANCH   8  11
ENDBRANCH   7   8
ENDBRANCH   1   7
BRANCH   6  13
ATOM     13  N   LIG d   1      -5.869  94.622 120.399  0.00  0.00    -0.311 N 
ATOM     14  C   LIG d   1      -5.754  95.913 120.702  0.00  0.00     0.210 C 
ATOM     15  C   LIG d   1      -5.955  96.250 122.183  0.00  0.00     0.109 C 
ATOM     16  O   LIG d   1      -5.537  96.816 119.880  0.00  0.00    -0.276 OA
ATOM     17  H   LIG d   1      -6.079  93.962 121.122  0.00  0.00     0.149 HD
ENDBRANCH   6  13
BRANCH   5  18
ATOM     18  N   LIG d   1      -7.752  95.168 118.056  0.00  0.00     0.381 N 
ATOM     19  H   LIG d   1      -8.261  95.425 118.878  0.00  0.00    -0.090 HD
ATOM     20  H   LIG d   1      -8.408  95.040 117.306  0.00  0.00    -0.090 HD
ATOM     21  H   LIG d   1      -7.103  95.886 117.820  0.00  0.00    -0.090 HD
ENDBRANCH   5  18
BRANCH   3  22
ATOM     22  C   LIG d   1      -6.174  91.123 116.035  0.00  0.00     0.382 C 
ATOM     23  O   LIG d   1      -7.327  90.688 115.803  0.00  0.00    -0.241 OA
ATOM     24  O   LIG d   1      -5.201  90.634 115.430  0.00  0.00    -0.241 OA
ENDBRANCH   3  22
TORSDOF 7
ENDMDL
MODEL 6
REMARK VINA RESULT:      -4.4      3.118      5.532
REMARK  7 active torsions:
REMARK  status: ('A' for Active; 'I' for Inactive)
REMARK    1  A    between atoms: C_2  and  C_3 
REMARK    2  A    between atoms: C_3  and  O_6 
REMARK    3  A    between atoms: C_3  and  C_4 
REMARK    4  A    between atoms: C_7  and  O_6 
REMARK    5  A    between atoms: C_9  and  C_10 
REMARK    6  A    between atoms: N_15  and  C_14 
REMARK    7  A    between atoms: N_20  and  C_19 
REMARK       I    between atoms: C_22  and  N_20 
ROOT
ATOM      1  C   LIG d   1      -1.454  91.544 117.641  0.00  0.00     0.161 C 
ATOM      2  C   LIG d   1      -0.208  91.858 118.208  0.00  0.00     0.016 C 
ATOM      3  C   LIG d   1       0.047  93.057 118.912  0.00  0.00     0.038 C 
ATOM      4  C   LIG d   1      -0.977  93.962 119.230  0.00  0.00     0.028 C 
ATOM      5  C   LIG d   1      -2.141  93.930 118.245  0.00  0.00    -0.047 C 
ATOM      6  C   LIG d   1      -2.612  92.468 118.073  0.00  0.00     0.091 C 
ENDROOT
BRANCH   1   7
ATOM      7  O   LIG d   1      -1.783  90.167 117.916  0.00  0.00    -0.368 OA
BRANCH   7   8
ATOM      8  C   LIG d   1      -1.234  89.612 119.136  0.00  0.00     0.119 C 
BRANCH   8   9
ATOM      9  C   LIG d   1      -0.764  88.178 118.822  0.00  0.00     0.028 C 
ATOM     10  C   LIG d   1       0.334  88.143 117.746  0.00  0.00     0.006 C 
ENDBRANCH   8   9
BRANCH   8  11
ATOM     11  C   LIG d   1      -2.312  89.458 120.213  0.00  0.00     0.028 C 
ATOM     12  C   LIG d   1      -2.287  90.595 121.247  0.00  0.00     0.006 C 
ENDBRANCH   8  11
ENDBRANCH   7   8
ENDBRANCH   1   7
BRANCH   6  13
ATOM     13  N   LIG d   1      -3.694  92.336 117.063  0.00  0.00    -0.311 N 
ATOM     14  C   LIG d   1      -4.989  92.323 117.373  0.00  0.00     0.210 C 
ATOM     15  C   LIG d   1      -5.938  92.158 116.181  0.00  0.00     0.109 C 
ATOM     16  O   LIG d   1      -5.444  92.466 118.518  0.00  0.00    -0.276 OA
ATOM     17  H   LIG d   1      -3.415  92.246 116.105  0.00  0.00     0.149 HD
ENDBRANCH   6  13
BRANCH   5  18
ATOM     18  N   LIG d   1      -3.194  94.819 118.771  0.00  0.00     0.381 N 
ATOM     19  H   LIG d   1      -3.596  95.347 118.023  0.00  0.00    -0.090 HD
ATOM     20  H   LIG d   1      -2.781  95.461 119.424  0.00  0.00    -0.090 HD
ATOM     21  H   LIG d   1      -3.899  94.281 119.225  0.00  0.00    -0.090 HD
ENDBRANCH   5  18
BRANCH   3  22
ATOM     22  C   LIG d   1       1.347  93.380 119.271  0.00  0.00     0.382 C 
ATOM     23  O   LIG d   1       2.312  92.900 118.629  0.00  0.00    -0.241 OA
ATOM     24  O   LIG d   1       1.567  94.109 120.257  0.00  0.00    -0.241 OA
ENDBRANCH   3  22
TORSDOF 7
ENDMDL
MODEL 7
REMARK VINA RESULT:      -4.3      2.566      4.378
REMARK  7 active torsions:
REMARK  status: ('A' for Active; 'I' for Inactive)
REMARK    1  A    between atoms: C_2  and  C_3 
REMARK    2  A    between atoms: C_3  and  O_6 
REMARK    3  A    between atoms: C_3  and  C_4 
REMARK    4  A    between atoms: C_7  and  O_6 
REMARK    5  A    between atoms: C_9  and  C_10 
REMARK    6  A    between atoms: N_15  and  C_14 
REMARK    7  A    between atoms: N_20  and  C_19 
REMARK       I    between atoms: C_22  and  N_20 
ROOT
ATOM      1  C   LIG d   1      -4.997  93.649 118.919  0.00  0.00     0.161 C 
ATOM      2  C   LIG d   1      -5.808  93.050 117.940  0.00  0.00     0.016 C 
ATOM      3  C   LIG d   1      -5.311  92.176 116.946  0.00  0.00     0.038 C 
ATOM      4  C   LIG d   1      -3.985  91.720 116.955  0.00  0.00     0.028 C 
ATOM      5  C   LIG d   1      -3.015  92.690 117.621  0.00  0.00    -0.047 C 
ATOM      6  C   LIG d   1      -3.567  93.076 119.012  0.00  0.00     0.091 C 
ENDROOT
BRANCH   1   7
ATOM      7  O   LIG d   1      -5.649  93.581 120.202  0.00  0.00    -0.368 OA
BRANCH   7   8
ATOM      8  C   LIG d   1      -6.179  94.828 120.714  0.00  0.00     0.119 C 
BRANCH   8   9
ATOM      9  C   LIG d   1      -7.709  94.789 120.537  0.00  0.00     0.028 C 
ATOM     10  C   LIG d   1      -8.453  94.680 121.879  0.00  0.00     0.006 C 
ENDBRANCH   8   9
BRANCH   8  11
ATOM     11  C   LIG d   1      -5.705  96.021 119.878  0.00  0.00     0.028 C 
ATOM     12  C   LIG d   1      -6.861  96.763 119.190  0.00  0.00     0.006 C 
ENDBRANCH   8  11
ENDBRANCH   7   8
ENDBRANCH   1   7
BRANCH   6  13
ATOM     13  N   LIG d   1      -2.721  94.088 119.697  0.00  0.00    -0.311 N 
ATOM     14  C   LIG d   1      -2.347  93.989 120.972  0.00  0.00     0.210 C 
ATOM     15  C   LIG d   1      -1.493  95.152 121.487  0.00  0.00     0.109 C 
ATOM     16  O   LIG d   1      -2.615  93.034 121.716  0.00  0.00    -0.276 OA
ATOM     17  H   LIG d   1      -2.432  94.881 119.159  0.00  0.00     0.149 HD
ENDBRANCH   6  13
BRANCH   5  18
ATOM     18  N   LIG d   1      -1.697  92.031 117.684  0.00  0.00     0.381 N 
ATOM     19  H   LIG d   1      -0.996  92.639 117.313  0.00  0.00    -0.090 HD
ATOM     20  H   LIG d   1      -1.723  91.198 117.122  0.00  0.00    -0.090 HD
ATOM     21  H   LIG d   1      -1.478  91.796 118.627  0.00  0.00    -0.090 HD
ENDBRANCH   5  18
BRANCH   3  22
ATOM     22  C   LIG d   1      -6.136  91.780 115.904  0.00  0.00     0.382 C 
ATOM     23  O   LIG d   1      -6.976  92.583 115.430  0.00  0.00    -0.241 OA
ATOM     24  O   LIG d   1      -6.083  90.617 115.462  0.00  0.00    -0.241 OA
ENDBRANCH   3  22
TORSDOF 7
ENDMDL
MODEL 8
REMARK VINA RESULT:      -4.3      3.304      6.245
REMARK  7 active torsions:
REMARK  status: ('A' for Active; 'I' for Inactive)
REMARK    1  A    between atoms: C_2  and  C_3 
REMARK    2  A    between atoms: C_3  and  O_6 
REMARK    3  A    between atoms: C_3  and  C_4 
REMARK    4  A    between atoms: C_7  and  O_6 
REMARK    5  A    between atoms: C_9  and  C_10 
REMARK    6  A    between atoms: N_15  and  C_14 
REMARK    7  A    between atoms: N_20  and  C_19 
REMARK       I    between atoms: C_22  and  N_20 
ROOT
ATOM      1  C   LIG d   1      -2.700  90.658 118.217  0.00  0.00     0.161 C 
ATOM      2  C   LIG d   1      -3.594  90.670 117.133  0.00  0.00     0.016 C 
ATOM      3  C   LIG d   1      -4.498  91.728 116.882  0.00  0.00     0.038 C 
ATOM      4  C   LIG d   1      -4.463  92.923 117.616  0.00  0.00     0.028 C 
ATOM      5  C   LIG d   1      -3.923  92.749 119.031  0.00  0.00    -0.047 C 
ATOM      6  C   LIG d   1      -2.571  92.002 118.964  0.00  0.00     0.091 C 
ENDROOT
BRANCH   1   7
ATOM      7  O   LIG d   1      -1.405  90.203 117.777  0.00  0.00    -0.368 OA
BRANCH   7   8
ATOM      8  C   LIG d   1      -1.090  88.816 118.052  0.00  0.00     0.119 C 
BRANCH   8   9
ATOM      9  C   LIG d   1      -1.802  88.430 119.363  0.00  0.00     0.028 C 
ATOM     10  C   LIG d   1      -0.812  88.066 120.483  0.00  0.00     0.006 C 
ENDBRANCH   8   9
BRANCH   8  11
ATOM     11  C   LIG d   1       0.404  88.629 118.332  0.00  0.00     0.028 C 
ATOM     12  C   LIG d   1       1.229  89.891 118.033  0.00  0.00     0.006 C 
ENDBRANCH   8  11
ENDBRANCH   7   8
ENDBRANCH   1   7
BRANCH   6  13
ATOM     13  N   LIG d   1      -2.013  91.716 120.311  0.00  0.00    -0.311 N 
ATOM     14  C   LIG d   1      -0.761  92.004 120.663  0.00  0.00     0.210 C 
ATOM     15  C   LIG d   1      -0.384  91.607 122.094  0.00  0.00     0.109 C 
ATOM     16  O   LIG d   1       0.063  92.579 119.936  0.00  0.00    -0.276 OA
ATOM     17  H   LIG d   1      -2.623  91.278 120.974  0.00  0.00     0.149 HD
ENDBRANCH   6  13
BRANCH   5  18
ATOM     18  N   LIG d   1      -3.812  94.090 119.634  0.00  0.00     0.381 N 
ATOM     19  H   LIG d   1      -3.376  94.023 120.532  0.00  0.00    -0.090 HD
ATOM     20  H   LIG d   1      -4.736  94.467 119.760  0.00  0.00    -0.090 HD
ATOM     21  H   LIG d   1      -3.279  94.688 119.042  0.00  0.00    -0.090 HD
ENDBRANCH   5  18
BRANCH   3  22
ATOM     22  C   LIG d   1      -5.476  91.580 115.911  0.00  0.00     0.382 C 
ATOM     23  O   LIG d   1      -5.716  90.446 115.430  0.00  0.00    -0.241 OA
ATOM     24  O   LIG d   1      -6.092  92.572 115.477  0.00  0.00    -0.241 OA
ENDBRANCH   3  22
TORSDOF 7
ENDMDL
MODEL 9
REMARK VINA RESULT:      -4.1      2.374      4.284
REMARK  7 active torsions:
REMARK  status: ('A' for Active; 'I' for Inactive)
REMARK    1  A    between atoms: C_2  and  C_3 
REMARK    2  A    between atoms: C_3  and  O_6 
REMARK    3  A    between atoms: C_3  and  C_4 
REMARK    4  A    between atoms: C_7  and  O_6 
REMARK    5  A    between atoms: C_9  and  C_10 
REMARK    6  A    between atoms: N_15  and  C_14 
REMARK    7  A    between atoms: N_20  and  C_19 
REMARK       I    between atoms: C_22  and  N_20 
ROOT
ATOM      1  C   LIG d   1      -3.717  92.487 118.439  0.00  0.00     0.161 C 
ATOM      2  C   LIG d   1      -4.304  91.879 117.317  0.00  0.00     0.016 C 
ATOM      3  C   LIG d   1      -5.604  92.188 116.855  0.00  0.00     0.038 C 
ATOM      4  C   LIG d   1      -6.353  93.243 117.398  0.00  0.00     0.028 C 
ATOM      5  C   LIG d   1      -6.006  93.546 118.852  0.00  0.00    -0.047 C 
ATOM      6  C   LIG d   1      -4.475  93.719 118.977  0.00  0.00     0.091 C 
ENDROOT
BRANCH   1   7
ATOM      7  O   LIG d   1      -2.348  92.829 118.149  0.00  0.00    -0.368 OA
BRANCH   7   8
ATOM      8  C   LIG d   1      -1.340  92.134 118.924  0.00  0.00     0.119 C 
BRANCH   8   9
ATOM      9  C   LIG d   1      -0.594  93.189 119.765  0.00  0.00     0.028 C 
ATOM     10  C   LIG d   1      -0.594  94.576 119.100  0.00  0.00     0.006 C 
ENDBRANCH   8   9
BRANCH   8  11
ATOM     11  C   LIG d   1      -0.274  91.509 118.020  0.00  0.00     0.028 C 
ATOM     12  C   LIG d   1       1.005  91.126 118.782  0.00  0.00     0.006 C 
ENDBRANCH   8  11
ENDBRANCH   7   8
ENDBRANCH   1   7
BRANCH   6  13
ATOM     13  N   LIG d   1      -4.042  93.935 120.382  0.00  0.00    -0.311 N 
ATOM     14  C   LIG d   1      -3.831  95.140 120.908  0.00  0.00     0.210 C 
ATOM     15  C   LIG d   1      -3.369  95.138 122.368  0.00  0.00     0.109 C 
ATOM     16  O   LIG d   1      -4.014  96.213 120.312  0.00  0.00    -0.276 OA
ATOM     17  H   LIG d   1      -3.900  93.120 120.946  0.00  0.00     0.149 HD
ENDBRANCH   6  13
BRANCH   5  18
ATOM     18  N   LIG d   1      -6.758  94.752 119.248  0.00  0.00     0.381 N 
ATOM     19  H   LIG d   1      -6.136  95.420 119.657  0.00  0.00    -0.090 HD
ATOM     20  H   LIG d   1      -7.443  94.496 119.937  0.00  0.00    -0.090 HD
ATOM     21  H   LIG d   1      -7.209  95.149 118.453  0.00  0.00    -0.090 HD
ENDBRANCH   5  18
BRANCH   3  22
ATOM     22  C   LIG d   1      -6.185  91.411 115.864  0.00  0.00     0.382 C 
ATOM     23  O   LIG d   1      -7.326  91.698 115.430  0.00  0.00    -0.241 OA
ATOM     24  O   LIG d   1      -5.600  90.401 115.430  0.00  0.00    -0.241 OA
ENDBRANCH   3  22
TORSDOF 7
ENDMDL
