MODEL 1
REMARK VINA RESULT:      -5.2      0.000      0.000
REMARK  7 active torsions:
REMARK  status: ('A' for Active; 'I' for Inactive)
REMARK    1  A    between atoms: C_2  and  C_3 
REMARK    2  A    between atoms: C_3  and  O_6 
REMARK    3  A    between atoms: C_3  and  C_4 
REMARK    4  A    between atoms: C_7  and  O_6 
REMARK    5  A    between atoms: C_9  and  C_10 
REMARK    6  A    between atoms: N_15  and  C_14 
REMARK    7  A    between atoms: N_20  and  C_19 
REMARK       I    between atoms: C_22  and  N_20 
ROOT
ATOM      1  C   LIG d   1      -6.297  91.904 118.818  0.00  0.00     0.161 C 
ATOM      2  C   LIG d   1      -7.566  92.499 118.723  0.00  0.00     0.016 C 
ATOM      3  C   LIG d   1      -7.772  93.898 118.735  0.00  0.00     0.038 C 
ATOM      4  C   LIG d   1      -6.704  94.805 118.692  0.00  0.00     0.028 C 
ATOM      5  C   LIG d   1      -5.416  94.255 119.296  0.00  0.00    -0.047 C 
ATOM      6  C   LIG d   1      -5.112  92.880 118.660  0.00  0.00     0.091 C 
ENDROOT
BRANCH   1   7
ATOM      7  O   LIG d   1      -6.189  90.827 117.867  0.00  0.00    -0.368 OA
BRANCH   7   8
ATOM      8  C   LIG d   1      -6.056  91.214 116.477  0.00  0.00     0.119 C 
BRANCH   8   9
ATOM      9  C   LIG d   1      -7.413  90.961 115.794  0.00  0.00     0.028 C 
ATOM     10  C   LIG d   1      -8.020  89.601 116.180  0.00  0.00     0.006 C 
ENDBRANCH   8   9
BRANCH   8  11
ATOM     11  C   LIG d   1      -5.057  90.316 115.742  0.00  0.00     0.028 C 
ATOM     12  C   LIG d   1      -3.893  89.860 116.637  0.00  0.00     0.006 C 
ENDBRANCH   8  11
ENDBRANCH   7   8
ENDBRANCH   1   7
BRANCH   6  13
ATOM     13  N   LIG d   1      -3.914  92.232 119.256  0.00  0.00    -0.311 N 
ATOM     14  C   LIG d   1      -2.673  92.442 118.818  0.00  0.00     0.210 C 
ATOM     15  C   LIG d   1      -1.585  91.660 119.560  0.00  0.00     0.109 C 
ATOM     16  O   LIG d   1      -2.368  93.226 117.907  0.00  0.00    -0.276 OA
ATOM     17  H   LIG d   1      -4.067  91.605 120.021  0.00  0.00     0.149 HD
ENDBRANCH   6  13
BRANCH   5  18
ATOM     18  N   LIG d   1      -4.353  95.249 119.061  0.00  0.00     0.381 N 
ATOM     19  H   LIG d   1      -4.149  95.735 119.912  0.00  0.00    -0.090 HD
ATOM     20  H   LIG d   1      -4.677  95.919 118.386  0.00  0.00    -0.090 HD
ATOM     21  H   LIG d   1      -3.532  94.797 118.723  0.00  0.00    -0.090 HD
ENDBRANCH   5  18
BRANCH   3  22
ATOM     22  C   LIG d   1      -9.061  94.401 118.832  0.00  0.00     0.382 C 
ATOM     23  O   LIG d   1     -10.013  93.636 119.119  0.00  0.00    -0.241 OA
ATOM     24  O   LIG d   1      -9.290  95.601 118.591  0.00  0.00    -0.241 OA
ENDBRANCH   3  22
TORSDOF 7
ENDMDL
MODEL 2
REMARK VINA RESULT:      -5.1      1.990      4.820
REMARK  7 active torsions:
REMARK  status: ('A' for Active; 'I' for Inactive)
REMARK    1  A    between atoms: C_2  and  C_3 
REMARK    2  A    between atoms: C_3  and  O_6 
REMARK    3  A    between atoms: C_3  and  C_4 
REMARK    4  A    between atoms: C_7  and  O_6 
REMARK    5  A    between atoms: C_9  and  C_10 
REMARK    6  A    between atoms: N_15  and  C_14 
REMARK    7  A    between atoms: N_20  and  C_19 
REMARK       I    between atoms: C_22  and  N_20 
ROOT
ATOM      1  C   LIG d   1      -6.977  93.118 118.514  0.00  0.00     0.161 C 
ATOM      2  C   LIG d   1      -7.347  91.919 117.883  0.00  0.00     0.016 C 
ATOM      3  C   LIG d   1      -6.441  91.106 117.164  0.00  0.00     0.038 C 
ATOM      4  C   LIG d   1      -5.062  91.362 117.154  0.00  0.00     0.028 C 
ATOM      5  C   LIG d   1      -4.718  92.834 117.354  0.00  0.00    -0.047 C 
ATOM      6  C   LIG d   1      -5.455  93.356 118.608  0.00  0.00     0.091 C 
ENDROOT
BRANCH   1   7
ATOM      7  O   LIG d   1      -7.577  93.187 119.822  0.00  0.00    -0.368 OA
BRANCH   7   8
ATOM      8  C   LIG d   1      -8.621  94.177 119.993  0.00  0.00     0.119 C 
BRANCH   8   9
ATOM      9  C   LIG d   1      -8.848  94.851 118.626  0.00  0.00     0.028 C 
ATOM     10  C   LIG d   1      -8.798  96.386 118.713  0.00  0.00     0.006 C 
ENDBRANCH   8   9
BRANCH   8  11
ATOM     11  C   LIG d   1      -8.174  95.303 120.931  0.00  0.00     0.028 C 
ATOM     12  C   LIG d   1      -7.150  94.835 121.977  0.00  0.00     0.006 C 
ENDBRANCH   8  11
ENDBRANCH   7   8
ENDBRANCH   1   7
BRANCH   6  13
ATOM     13  N   LIG d   1      -5.240  94.810 118.828  0.00  0.00    -0.311 N 
ATOM     14  C   LIG d   1      -4.309  95.298 119.647  0.00  0.00     0.210 C 
ATOM     15  C   LIG d   1      -4.270  96.826 119.743  0.00  0.00     0.109 C 
ATOM     16  O   LIG d   1      -3.492  94.611 120.277  0.00  0.00    -0.276 OA
ATOM     17  H   LIG d   1      -5.840  95.440 118.332  0.00  0.00     0.149 HD
ENDBRANCH   6  13
BRANCH   5  18
ATOM     18  N   LIG d   1      -3.250  92.938 117.461  0.00  0.00     0.381 N 
ATOM     19  H   LIG d   1      -2.826  92.645 116.604  0.00  0.00    -0.090 HD
ATOM     20  H   LIG d   1      -2.934  92.329 118.194  0.00  0.00    -0.090 HD
ATOM     21  H   LIG d   1      -2.989  93.878 117.664  0.00  0.00    -0.090 HD
ENDBRANCH   5  18
BRANCH   3  22
ATOM     22  C   LIG d   1      -6.919  90.045 116.410  0.00  0.00     0.382 C 
ATOM     23  O   LIG d   1      -7.986  89.472 116.739  0.00  0.00    -0.241 OA
ATOM     24  O   LIG d   1      -6.274  89.624 115.431  0.00  0.00    -0.241 OA
ENDBRANCH   3  22
TORSDOF 7
ENDMDL
MODEL 3
REMARK VINA RESULT:      -5.0      2.072      5.062
REMARK  7 active torsions:
REMARK  status: ('A' for Active; 'I' for Inactive)
REMARK    1  A    between atoms: C_2  and  C_3 
REMARK    2  A    between atoms: C_3  and  O_6 
REMARK    3  A    between atoms: C_3  and  C_4 
REMARK    4  A    between atoms: C_7  and  O_6 
REMARK    5  A    between atoms: C_9  and  C_10 
REMARK    6  A    between atoms: N_15  and  C_14 
REMARK    7  A    between atoms: N_20  and  C_19 
REMARK       I    between atoms: C_22  and  N_20 
ROOT
ATOM      1  C   LIG d   1      -4.950  92.623 117.946  0.00  0.00     0.161 C 
ATOM      2  C   LIG d   1      -5.089  91.533 117.071  0.00  0.00     0.016 C 
ATOM      3  C   LIG d   1      -6.301  91.209 116.418  0.00  0.00     0.038 C 
ATOM      4  C   LIG d   1      -7.423  92.048 116.478  0.00  0.00     0.028 C 
ATOM      5  C   LIG d   1      -7.484  92.887 117.750  0.00  0.00    -0.047 C 
ATOM      6  C   LIG d   1      -6.133  93.614 117.938  0.00  0.00     0.091 C 
ENDROOT
BRANCH   1   7
ATOM      7  O   LIG d   1      -3.715  93.314 117.673  0.00  0.00    -0.368 OA
BRANCH   7   8
ATOM      8  C   LIG d   1      -2.659  93.141 118.650  0.00  0.00     0.119 C 
BRANCH   8   9
ATOM      9  C   LIG d   1      -1.827  94.438 118.666  0.00  0.00     0.028 C 
ATOM     10  C   LIG d   1      -2.632  95.646 119.174  0.00  0.00     0.006 C 
ENDBRANCH   8   9
BRANCH   8  11
ATOM     11  C   LIG d   1      -1.684  92.039 118.226  0.00  0.00     0.028 C 
ATOM     12  C   LIG d   1      -1.468  90.981 119.320  0.00  0.00     0.006 C 
ENDBRANCH   8  11
ENDBRANCH   7   8
ENDBRANCH   1   7
BRANCH   6  13
ATOM     13  N   LIG d   1      -6.078  94.391 119.204  0.00  0.00    -0.311 N 
ATOM     14  C   LIG d   1      -6.429  95.673 119.293  0.00  0.00     0.210 C 
ATOM     15  C   LIG d   1      -6.277  96.289 120.687  0.00  0.00     0.109 C 
ATOM     16  O   LIG d   1      -6.882  96.349 118.357  0.00  0.00    -0.276 OA
ATOM     17  H   LIG d   1      -5.752  93.911 120.019  0.00  0.00     0.149 HD
ENDBRANCH   6  13
BRANCH   5  18
ATOM     18  N   LIG d   1      -8.625  93.813 117.619  0.00  0.00     0.381 N 
ATOM     19  H   LIG d   1      -8.763  94.047 116.656  0.00  0.00    -0.090 HD
ATOM     20  H   LIG d   1      -8.418  94.658 118.122  0.00  0.00    -0.090 HD
ATOM     21  H   LIG d   1      -9.450  93.392 117.988  0.00  0.00    -0.090 HD
ENDBRANCH   5  18
BRANCH   3  22
ATOM     22  C   LIG d   1      -6.410  90.012 115.726  0.00  0.00     0.382 C 
ATOM     23  O   LIG d   1      -7.542  89.559 115.432  0.00  0.00    -0.241 OA
ATOM     24  O   LIG d   1      -5.392  89.359 115.430  0.00  0.00    -0.241 OA
ENDBRANCH   3  22
TORSDOF 7
ENDMDL
MODEL 4
REMARK VINA RESULT:      -5.0      1.934      4.823
REMARK  7 active torsions:
REMARK  status: ('A' for Active; 'I' for Inactive)
REMARK    1  A    between atoms: C_2  and  C_3 
REMARK    2  A    between atoms: C_3  and  O_6 
REMARK    3  A    between atoms: C_3  and  C_4 
REMARK    4  A    between atoms: C_7  and  O_6 
REMARK    5  A    between atoms: C_9  and  C_10 
REMARK    6  A    between atoms: N_15  and  C_14 
REMARK    7  A    between atoms: N_20  and  C_19 
REMARK       I    between atoms: C_22  and  N_20 
ROOT
ATOM      1  C   LIG d   1      -6.203  93.365 118.043  0.00  0.00     0.161 C 
ATOM      2  C   LIG d   1      -6.889  92.246 117.542  0.00  0.00     0.016 C 
ATOM      3  C   LIG d   1      -6.245  91.050 117.151  0.00  0.00     0.038 C 
ATOM      4  C   LIG d   1      -4.877  90.835 117.379  0.00  0.00     0.028 C 
ATOM      5  C   LIG d   1      -4.060  92.123 117.416  0.00  0.00    -0.047 C 
ATOM      6  C   LIG d   1      -4.725  93.110 118.403  0.00  0.00     0.091 C 
ENDROOT
BRANCH   1   7
ATOM      7  O   LIG d   1      -6.910  93.902 119.179  0.00  0.00    -0.368 OA
BRANCH   7   8
ATOM      8  C   LIG d   1      -7.472  95.226 119.012  0.00  0.00     0.119 C 
BRANCH   8   9
ATOM      9  C   LIG d   1      -7.244  95.996 120.328  0.00  0.00     0.028 C 
ATOM     10  C   LIG d   1      -6.251  95.282 121.260  0.00  0.00     0.006 C 
ENDBRANCH   8   9
BRANCH   8  11
ATOM     11  C   LIG d   1      -8.992  95.168 118.836  0.00  0.00     0.028 C 
ATOM     12  C   LIG d   1      -9.645  94.043 119.654  0.00  0.00     0.006 C 
ENDBRANCH   8  11
ENDBRANCH   7   8
ENDBRANCH   1   7
BRANCH   6  13
ATOM     13  N   LIG d   1      -4.036  94.427 118.437  0.00  0.00    -0.311 N 
ATOM     14  C   LIG d   1      -3.096  94.740 119.327  0.00  0.00     0.210 C 
ATOM     15  C   LIG d   1      -2.530  96.157 119.198  0.00  0.00     0.109 C 
ATOM     16  O   LIG d   1      -2.655  93.967 120.191  0.00  0.00    -0.276 OA
ATOM     17  H   LIG d   1      -4.311  95.103 117.751  0.00  0.00     0.149 HD
ENDBRANCH   6  13
BRANCH   5  18
ATOM     18  N   LIG d   1      -2.681  91.764 117.798  0.00  0.00     0.381 N 
ATOM     19  H   LIG d   1      -2.111  91.691 116.979  0.00  0.00    -0.090 HD
ATOM     20  H   LIG d   1      -2.692  90.869 118.255  0.00  0.00    -0.090 HD
ATOM     21  H   LIG d   1      -2.307  92.454 118.411  0.00  0.00    -0.090 HD
ENDBRANCH   5  18
BRANCH   3  22
ATOM     22  C   LIG d   1      -6.964  90.067 116.488  0.00  0.00     0.382 C 
ATOM     23  O   LIG d   1      -6.513  89.566 115.430  0.00  0.00    -0.241 OA
ATOM     24  O   LIG d   1      -8.079  89.706 116.911  0.00  0.00    -0.241 OA
ENDBRANCH   3  22
TORSDOF 7
ENDMDL
MODEL 5
REMARK VINA RESULT:      -5.0      2.267      4.380
REMARK  7 active torsions:
REMARK  status: ('A' for Active; 'I' for Inactive)
REMARK    1  A    between atoms: C_2  and  C_3 
REMARK    2  A    between atoms: C_3  and  O_6 
REMARK    3  A    between atoms: C_3  and  C_4 
REMARK    4  A    between atoms: C_7  and  O_6 
REMARK    5  A    between atoms: C_9  and  C_10 
REMARK    6  A    between atoms: N_15  and  C_14 
REMARK    7  A    between atoms: N_20  and  C_19 
REMARK       I    between atoms: C_22  and  N_20 
ROOT
ATOM      1  C   LIG d   1      -5.646  92.066 119.220  0.00  0.00     0.161 C 
ATOM      2  C   LIG d   1      -5.872  91.069 118.256  0.00  0.00     0.016 C 
ATOM      3  C   LIG d   1      -6.822  91.193 117.217  0.00  0.00     0.038 C 
ATOM      4  C   LIG d   1      -7.509  92.393 116.979  0.00  0.00     0.028 C 
ATOM      5  C   LIG d   1      -7.682  93.250 118.229  0.00  0.00    -0.047 C 
ATOM      6  C   LIG d   1      -6.306  93.426 118.911  0.00  0.00     0.091 C 
ENDROOT
BRANCH   1   7
ATOM      7  O   LIG d   1      -4.229  92.233 119.427  0.00  0.00    -0.368 OA
BRANCH   7   8
ATOM      8  C   LIG d   1      -3.410  92.269 118.232  0.00  0.00     0.119 C 
BRANCH   8   9
ATOM      9  C   LIG d   1      -2.212  91.327 118.464  0.00  0.00     0.028 C 
ATOM     10  C   LIG d   1      -2.366  89.988 117.722  0.00  0.00     0.006 C 
ENDBRANCH   8   9
BRANCH   8  11
ATOM     11  C   LIG d   1      -2.799  93.656 118.017  0.00  0.00     0.028 C 
ATOM     12  C   LIG d   1      -1.262  93.636 118.009  0.00  0.00     0.006 C 
ENDBRANCH   8  11
ENDBRANCH   7   8
ENDBRANCH   1   7
BRANCH   6  13
ATOM     13  N   LIG d   1      -6.399  94.182 120.187  0.00  0.00    -0.311 N 
ATOM     14  C   LIG d   1      -5.759  95.329 120.408  0.00  0.00     0.210 C 
ATOM     15  C   LIG d   1      -5.976  95.932 121.799  0.00  0.00     0.109 C 
ATOM     16  O   LIG d   1      -5.059  95.921 119.573  0.00  0.00    -0.276 OA
ATOM     17  H   LIG d   1      -6.971  93.789 120.909  0.00  0.00     0.149 HD
ENDBRANCH   6  13
BRANCH   5  18
ATOM     18  N   LIG d   1      -8.289  94.528 117.813  0.00  0.00     0.381 N 
ATOM     19  H   LIG d   1      -7.768  94.919 117.054  0.00  0.00    -0.090 HD
ATOM     20  H   LIG d   1      -8.254  95.171 118.584  0.00  0.00    -0.090 HD
ATOM     21  H   LIG d   1      -9.235  94.382 117.535  0.00  0.00    -0.090 HD
ENDBRANCH   5  18
BRANCH   3  22
ATOM     22  C   LIG d   1      -7.123  90.095 116.426  0.00  0.00     0.382 C 
ATOM     23  O   LIG d   1      -8.110  89.373 116.705  0.00  0.00    -0.241 OA
ATOM     24  O   LIG d   1      -6.393  89.791 115.463  0.00  0.00    -0.241 OA
ENDBRANCH   3  22
TORSDOF 7
ENDMDL
MODEL 6
REMARK VINA RESULT:      -4.9      2.015      4.550
REMARK  7 active torsions:
REMARK  status: ('A' for Active; 'I' for Inactive)
REMARK    1  A    between atoms: C_2  and  C_3 
REMARK    2  A    between atoms: C_3  and  O_6 
REMARK    3  A    between atoms: C_3  and  C_4 
REMARK    4  A    between atoms: C_7  and  O_6 
REMARK    5  A    between atoms: C_9  and  C_10 
REMARK    6  A    between atoms: N_15  and  C_14 
REMARK    7  A    between atoms: N_20  and  C_19 
REMARK       I    between atoms: C_22  and  N_20 
ROOT
ATOM      1  C   LIG d   1      -5.570  93.144 117.476  0.00  0.00     0.161 C 
ATOM      2  C   LIG d   1      -6.666  92.336 117.130  0.00  0.00     0.016 C 
ATOM      3  C   LIG d   1      -6.549  90.969 116.790  0.00  0.00     0.038 C 
ATOM      4  C   LIG d   1      -5.337  90.274 116.921  0.00  0.00     0.028 C 
ATOM      5  C   LIG d   1      -4.109  91.167 116.781  0.00  0.00    -0.047 C 
ATOM      6  C   LIG d   1      -4.257  92.376 117.732  0.00  0.00     0.091 C 
ENDROOT
BRANCH   1   7
ATOM      7  O   LIG d   1      -5.905  93.958 118.618  0.00  0.00    -0.368 OA
BRANCH   7   8
ATOM      8  C   LIG d   1      -7.273  94.431 118.684  0.00  0.00     0.119 C 
BRANCH   8   9
ATOM      9  C   LIG d   1      -7.251  95.948 118.416  0.00  0.00     0.028 C 
ATOM     10  C   LIG d   1      -8.646  96.586 118.540  0.00  0.00     0.006 C 
ENDBRANCH   8   9
BRANCH   8  11
ATOM     11  C   LIG d   1      -7.848  94.277 120.095  0.00  0.00     0.028 C 
ATOM     12  C   LIG d   1      -6.772  93.955 121.145  0.00  0.00     0.006 C 
ENDBRANCH   8  11
ENDBRANCH   7   8
ENDBRANCH   1   7
BRANCH   6  13
ATOM     13  N   LIG d   1      -3.137  93.344 117.597  0.00  0.00    -0.311 N 
ATOM     14  C   LIG d   1      -2.224  93.546 118.545  0.00  0.00     0.210 C 
ATOM     15  C   LIG d   1      -1.166  94.603 118.210  0.00  0.00     0.109 C 
ATOM     16  O   LIG d   1      -2.170  92.927 119.618  0.00  0.00    -0.276 OA
ATOM     17  H   LIG d   1      -3.086  93.866 116.744  0.00  0.00     0.149 HD
ENDBRANCH   6  13
BRANCH   5  18
ATOM     18  N   LIG d   1      -2.922  90.341 117.075  0.00  0.00     0.381 N 
ATOM     19  H   LIG d   1      -3.169  89.607 117.708  0.00  0.00    -0.090 HD
ATOM     20  H   LIG d   1      -2.226  90.917 117.515  0.00  0.00    -0.090 HD
ATOM     21  H   LIG d   1      -2.558  89.954 116.232  0.00  0.00    -0.090 HD
ENDBRANCH   5  18
BRANCH   3  22
ATOM     22  C   LIG d   1      -7.644  90.292 116.275  0.00  0.00     0.382 C 
ATOM     23  O   LIG d   1      -8.386  90.850 115.431  0.00  0.00    -0.241 OA
ATOM     24  O   LIG d   1      -7.925  89.147 116.677  0.00  0.00    -0.241 OA
ENDBRANCH   3  22
TORSDOF 7
ENDMDL
MODEL 7
REMARK VINA RESULT:      -4.6      2.339      4.360
REMARK  7 active torsions:
REMARK  status: ('A' for Active; 'I' for Inactive)
REMARK    1  A    between atoms: C_2  and  C_3 
REMARK    2  A    between atoms: C_3  and  O_6 
REMARK    3  A    between atoms: C_3  and  C_4 
REMARK    4  A    between atoms: C_7  and  O_6 
REMARK    5  A    between atoms: C_9  and  C_10 
REMARK    6  A    between atoms: N_15  and  C_14 
REMARK    7  A    between atoms: N_20  and  C_19 
REMARK       I    between atoms: C_22  and  N_20 
ROOT
ATOM      1  C   LIG d   1      -4.229  91.888 118.248  0.00  0.00     0.161 C 
ATOM      2  C   LIG d   1      -4.929  91.060 117.354  0.00  0.00     0.016 C 
ATOM      3  C   LIG d   1      -6.093  91.469 116.664  0.00  0.00     0.038 C 
ATOM      4  C   LIG d   1      -6.553  92.793 116.706  0.00  0.00     0.028 C 
ATOM      5  C   LIG d   1      -6.172  93.527 117.987  0.00  0.00    -0.047 C 
ATOM      6  C   LIG d   1      -4.652  93.371 118.221  0.00  0.00     0.091 C 
ENDROOT
BRANCH   1   7
ATOM      7  O   LIG d   1      -2.811  91.767 118.018  0.00  0.00    -0.368 OA
BRANCH   7   8
ATOM      8  C   LIG d   1      -2.119  90.775 118.815  0.00  0.00     0.119 C 
BRANCH   8   9
ATOM      9  C   LIG d   1      -1.156  91.526 119.755  0.00  0.00     0.028 C 
ATOM     10  C   LIG d   1      -0.222  92.483 118.996  0.00  0.00     0.006 C 
ENDBRANCH   8   9
BRANCH   8  11
ATOM     11  C   LIG d   1      -1.225  89.886 117.945  0.00  0.00     0.028 C 
ATOM     12  C   LIG d   1      -1.501  88.387 118.143  0.00  0.00     0.006 C 
ENDBRANCH   8  11
ENDBRANCH   7   8
ENDBRANCH   1   7
BRANCH   6  13
ATOM     13  N   LIG d   1      -4.209  93.988 119.499  0.00  0.00    -0.311 N 
ATOM     14  C   LIG d   1      -3.157  94.800 119.595  0.00  0.00     0.210 C 
ATOM     15  C   LIG d   1      -2.862  95.311 121.009  0.00  0.00     0.109 C 
ATOM     16  O   LIG d   1      -2.461  95.171 118.639  0.00  0.00    -0.276 OA
ATOM     17  H   LIG d   1      -4.737  93.766 120.320  0.00  0.00     0.149 HD
ENDBRANCH   6  13
BRANCH   5  18
ATOM     18  N   LIG d   1      -6.594  94.932 117.838  0.00  0.00     0.381 N 
ATOM     19  H   LIG d   1      -7.590  94.981 117.766  0.00  0.00    -0.090 HD
ATOM     20  H   LIG d   1      -6.198  95.303 116.992  0.00  0.00    -0.090 HD
ATOM     21  H   LIG d   1      -6.283  95.466 118.620  0.00  0.00    -0.090 HD
ENDBRANCH   5  18
BRANCH   3  22
ATOM     22  C   LIG d   1      -6.833  90.536 115.952  0.00  0.00     0.382 C 
ATOM     23  O   LIG d   1      -8.079  90.657 115.869  0.00  0.00    -0.241 OA
ATOM     24  O   LIG d   1      -6.275  89.553 115.430  0.00  0.00    -0.241 OA
ENDBRANCH   3  22
TORSDOF 7
ENDMDL
MODEL 8
REMARK VINA RESULT:      -4.4      2.491      4.602
REMARK  7 active torsions:
REMARK  status: ('A' for Active; 'I' for Inactive)
REMARK    1  A    between atoms: C_2  and  C_3 
REMARK    2  A    between atoms: C_3  and  O_6 
REMARK    3  A    between atoms: C_3  and  C_4 
REMARK    4  A    between atoms: C_7  and  O_6 
REMARK    5  A    between atoms: C_9  and  C_10 
REMARK    6  A    between atoms: N_15  and  C_14 
REMARK    7  A    between atoms: N_20  and  C_19 
REMARK       I    between atoms: C_22  and  N_20 
ROOT
ATOM      1  C   LIG d   1      -5.179  91.859 117.952  0.00  0.00     0.161 C 
ATOM      2  C   LIG d   1      -4.543  93.003 118.461  0.00  0.00     0.016 C 
ATOM      3  C   LIG d   1      -5.215  94.003 119.201  0.00  0.00     0.038 C 
ATOM      4  C   LIG d   1      -6.548  93.851 119.613  0.00  0.00     0.028 C 
ATOM      5  C   LIG d   1      -7.367  92.951 118.694  0.00  0.00    -0.047 C 
ATOM      6  C   LIG d   1      -6.607  91.621 118.486  0.00  0.00     0.091 C 
ENDROOT
BRANCH   1   7
ATOM      7  O   LIG d   1      -4.357  90.698 118.185  0.00  0.00    -0.368 OA
BRANCH   7   8
ATOM      8  C   LIG d   1      -3.377  90.813 119.246  0.00  0.00     0.119 C 
BRANCH   8   9
ATOM      9  C   LIG d   1      -2.092  90.112 118.767  0.00  0.00     0.028 C 
ATOM     10  C   LIG d   1      -2.382  88.943 117.811  0.00  0.00     0.006 C 
ENDBRANCH   8   9
BRANCH   8  11
ATOM     11  C   LIG d   1      -3.817  90.045 120.496  0.00  0.00     0.028 C 
ATOM     12  C   LIG d   1      -4.486  90.947 121.545  0.00  0.00     0.006 C 
ENDBRANCH   8  11
ENDBRANCH   7   8
ENDBRANCH   1   7
BRANCH   6  13
ATOM     13  N   LIG d   1      -7.299  90.715 117.532  0.00  0.00    -0.311 N 
ATOM     14  C   LIG d   1      -7.459  90.996 116.240  0.00  0.00     0.210 C 
ATOM     15  C   LIG d   1      -8.219  89.936 115.437  0.00  0.00     0.109 C 
ATOM     16  O   LIG d   1      -7.015  92.007 115.676  0.00  0.00    -0.276 OA
ATOM     17  H   LIG d   1      -7.663  89.858 117.899  0.00  0.00     0.149 HD
ENDBRANCH   6  13
BRANCH   5  18
ATOM     18  N   LIG d   1      -8.693  92.769 119.315  0.00  0.00     0.381 N 
ATOM     19  H   LIG d   1      -9.397  93.177 118.734  0.00  0.00    -0.090 HD
ATOM     20  H   LIG d   1      -8.703  93.239 120.202  0.00  0.00    -0.090 HD
ATOM     21  H   LIG d   1      -8.879  91.798 119.443  0.00  0.00    -0.090 HD
ENDBRANCH   5  18
BRANCH   3  22
ATOM     22  C   LIG d   1      -4.564  95.190 119.502  0.00  0.00     0.382 C 
ATOM     23  O   LIG d   1      -3.311  95.227 119.531  0.00  0.00    -0.241 OA
ATOM     24  O   LIG d   1      -5.216  96.213 119.787  0.00  0.00    -0.241 OA
ENDBRANCH   3  22
TORSDOF 7
ENDMDL
MODEL 9
REMARK VINA RESULT:      -4.2      2.873      4.869
REMARK  7 active torsions:
REMARK  status: ('A' for Active; 'I' for Inactive)
REMARK    1  A    between atoms: C_2  and  C_3 
REMARK    2  A    between atoms: C_3  and  O_6 
REMARK    3  A    between atoms: C_3  and  C_4 
REMARK    4  A    between atoms: C_7  and  O_6 
REMARK    5  A    between atoms: C_9  and  C_10 
REMARK    6  A    between atoms: N_15  and  C_14 
REMARK    7  A    between atoms: N_20  and  C_19 
REMARK       I    between atoms: C_22  and  N_20 
ROOT
ATOM      1  C   LIG d   1      -3.025  93.016 118.472  0.00  0.00     0.161 C 
ATOM      2  C   LIG d   1      -3.107  94.386 118.769  0.00  0.00     0.016 C 
ATOM      3  C   LIG d   1      -1.975  95.202 118.997  0.00  0.00     0.038 C 
ATOM      4  C   LIG d   1      -0.669  94.732 118.793  0.00  0.00     0.028 C 
ATOM      5  C   LIG d   1      -0.531  93.225 118.985  0.00  0.00    -0.047 C 
ATOM      6  C   LIG d   1      -1.607  92.511 118.135  0.00  0.00     0.091 C 
ENDROOT
BRANCH   1   7
ATOM      7  O   LIG d   1      -3.938  92.692 117.405  0.00  0.00    -0.368 OA
BRANCH   7   8
ATOM      8  C   LIG d   1      -5.301  92.400 117.799  0.00  0.00     0.119 C 
BRANCH   8   9
ATOM      9  C   LIG d   1      -5.627  90.973 117.317  0.00  0.00     0.028 C 
ATOM     10  C   LIG d   1      -4.571  90.428 116.340  0.00  0.00     0.006 C 
ENDBRANCH   8   9
BRANCH   8  11
ATOM     11  C   LIG d   1      -6.299  93.309 117.075  0.00  0.00     0.028 C 
ATOM     12  C   LIG d   1      -6.807  94.459 117.959  0.00  0.00     0.006 C 
ENDBRANCH   8  11
ENDBRANCH   7   8
ENDBRANCH   1   7
BRANCH   6  13
ATOM     13  N   LIG d   1      -1.596  91.037 118.330  0.00  0.00    -0.311 N 
ATOM     14  C   LIG d   1      -0.861  90.206 117.593  0.00  0.00     0.210 C 
ATOM     15  C   LIG d   1      -1.013  88.723 117.946  0.00  0.00     0.109 C 
ATOM     16  O   LIG d   1      -0.074  90.558 116.702  0.00  0.00    -0.276 OA
ATOM     17  H   LIG d   1      -2.182  90.668 119.053  0.00  0.00     0.149 HD
ENDBRANCH   6  13
BRANCH   5  18
ATOM     18  N   LIG d   1       0.846  92.852 118.607  0.00  0.00     0.381 N 
ATOM     19  H   LIG d   1       0.982  93.006 117.628  0.00  0.00    -0.090 HD
ATOM     20  H   LIG d   1       0.981  91.875 118.795  0.00  0.00    -0.090 HD
ATOM     21  H   LIG d   1       1.500  93.392 119.129  0.00  0.00    -0.090 HD
ENDBRANCH   5  18
BRANCH   3  22
ATOM     22  C   LIG d   1      -2.143  96.493 119.474  0.00  0.00     0.382 C 
ATOM     23  O   LIG d   1      -3.297  96.960 119.626  0.00  0.00    -0.241 OA
ATOM     24  O   LIG d   1      -1.154  97.213 119.711  0.00  0.00    -0.241 OA
ENDBRANCH   3  22
TORSDOF 7
ENDMDL
