MODEL 1
REMARK VINA RESULT:      -4.9      0.000      0.000
REMARK  7 active torsions:
REMARK  status: ('A' for Active; 'I' for Inactive)
REMARK    1  A    between atoms: C_2  and  C_3 
REMARK    2  A    between atoms: C_3  and  O_6 
REMARK    3  A    between atoms: C_3  and  C_4 
REMARK    4  A    between atoms: C_7  and  O_6 
REMARK    5  A    between atoms: C_9  and  C_10 
REMARK    6  A    between atoms: N_15  and  C_14 
REMARK    7  A    between atoms: N_20  and  C_19 
REMARK       I    between atoms: C_22  and  N_20 
ROOT
ATOM      1  C   LIG d   1      -6.470  92.593 119.578  0.00  0.00     0.161 C 
ATOM      2  C   LIG d   1      -5.725  93.290 120.544  0.00  0.00     0.016 C 
ATOM      3  C   LIG d   1      -4.320  93.434 120.488  0.00  0.00     0.038 C 
ATOM      4  C   LIG d   1      -3.576  93.016 119.374  0.00  0.00     0.028 C 
ATOM      5  C   LIG d   1      -4.220  91.863 118.613  0.00  0.00    -0.047 C 
ATOM      6  C   LIG d   1      -5.689  92.227 118.299  0.00  0.00     0.091 C 
ENDROOT
BRANCH   1   7
ATOM      7  O   LIG d   1      -7.657  93.341 119.244  0.00  0.00    -0.368 OA
BRANCH   7   8
ATOM      8  C   LIG d   1      -7.619  94.760 119.533  0.00  0.00     0.119 C 
BRANCH   8   9
ATOM      9  C   LIG d   1      -8.877  95.098 120.355  0.00  0.00     0.028 C 
ATOM     10  C   LIG d   1      -8.537  95.617 121.762  0.00  0.00     0.006 C 
ENDBRANCH   8   9
BRANCH   8  11
ATOM     11  C   LIG d   1      -7.734  95.593 118.253  0.00  0.00     0.028 C 
ATOM     12  C   LIG d   1      -7.287  97.050 118.448  0.00  0.00     0.006 C 
ENDBRANCH   8  11
ENDBRANCH   7   8
ENDBRANCH   1   7
BRANCH   6  13
ATOM     13  N   LIG d   1      -6.417  91.118 117.629  0.00  0.00    -0.311 N 
ATOM     14  C   LIG d   1      -6.500  90.989 116.306  0.00  0.00     0.210 C 
ATOM     15  C   LIG d   1      -7.315  89.786 115.823  0.00  0.00     0.109 C 
ATOM     16  O   LIG d   1      -5.948  91.739 115.486  0.00  0.00    -0.276 OA
ATOM     17  H   LIG d   1      -6.868  90.447 118.219  0.00  0.00     0.149 HD
ENDBRANCH   6  13
BRANCH   5  18
ATOM     18  N   LIG d   1      -3.412  91.622 117.402  0.00  0.00     0.381 N 
ATOM     19  H   LIG d   1      -3.490  92.403 116.782  0.00  0.00    -0.090 HD
ATOM     20  H   LIG d   1      -3.768  90.808 116.931  0.00  0.00    -0.090 HD
ATOM     21  H   LIG d   1      -2.458  91.480 117.652  0.00  0.00    -0.090 HD
ENDBRANCH   5  18
BRANCH   3  22
ATOM     22  C   LIG d   1      -3.640  93.965 121.573  0.00  0.00     0.382 C 
ATOM     23  O   LIG d   1      -4.115  93.850 122.729  0.00  0.00    -0.241 OA
ATOM     24  O   LIG d   1      -2.579  94.597 121.406  0.00  0.00    -0.241 OA
ENDBRANCH   3  22
TORSDOF 7
ENDMDL
MODEL 2
REMARK VINA RESULT:      -4.9      2.696      6.460
REMARK  7 active torsions:
REMARK  status: ('A' for Active; 'I' for Inactive)
REMARK    1  A    between atoms: C_2  and  C_3 
REMARK    2  A    between atoms: C_3  and  O_6 
REMARK    3  A    between atoms: C_3  and  C_4 
REMARK    4  A    between atoms: C_7  and  O_6 
REMARK    5  A    between atoms: C_9  and  C_10 
REMARK    6  A    between atoms: N_15  and  C_14 
REMARK    7  A    between atoms: N_20  and  C_19 
REMARK       I    between atoms: C_22  and  N_20 
ROOT
ATOM      1  C   LIG d   1      -4.078  91.459 119.109  0.00  0.00     0.161 C 
ATOM      2  C   LIG d   1      -4.318  90.606 118.019  0.00  0.00     0.016 C 
ATOM      3  C   LIG d   1      -5.325  90.840 117.054  0.00  0.00     0.038 C 
ATOM      4  C   LIG d   1      -6.065  92.032 117.029  0.00  0.00     0.028 C 
ATOM      5  C   LIG d   1      -6.203  92.687 118.399  0.00  0.00    -0.047 C 
ATOM      6  C   LIG d   1      -4.801  92.821 119.036  0.00  0.00     0.091 C 
ENDROOT
BRANCH   1   7
ATOM      7  O   LIG d   1      -2.659  91.654 119.273  0.00  0.00    -0.368 OA
BRANCH   7   8
ATOM      8  C   LIG d   1      -1.870  91.652 118.058  0.00  0.00     0.119 C 
BRANCH   8   9
ATOM      9  C   LIG d   1      -0.676  90.705 118.283  0.00  0.00     0.028 C 
ATOM     10  C   LIG d   1      -0.767  89.431 117.426  0.00  0.00     0.006 C 
ENDBRANCH   8   9
BRANCH   8  11
ATOM     11  C   LIG d   1      -1.253  93.028 117.793  0.00  0.00     0.028 C 
ATOM     12  C   LIG d   1       0.282  93.018 117.874  0.00  0.00     0.006 C 
ENDBRANCH   8  11
ENDBRANCH   7   8
ENDBRANCH   1   7
BRANCH   6  13
ATOM     13  N   LIG d   1      -4.854  93.376 120.413  0.00  0.00    -0.311 N 
ATOM     14  C   LIG d   1      -4.728  94.673 120.686  0.00  0.00     0.210 C 
ATOM     15  C   LIG d   1      -4.793  95.031 122.174  0.00  0.00     0.109 C 
ATOM     16  O   LIG d   1      -4.602  95.566 119.834  0.00  0.00    -0.276 OA
ATOM     17  H   LIG d   1      -4.986  92.725 121.163  0.00  0.00     0.149 HD
ENDBRANCH   6  13
BRANCH   5  18
ATOM     18  N   LIG d   1      -6.876  93.986 118.206  0.00  0.00     0.381 N 
ATOM     19  H   LIG d   1      -6.294  94.591 117.662  0.00  0.00    -0.090 HD
ATOM     20  H   LIG d   1      -7.023  94.413 119.103  0.00  0.00    -0.090 HD
ATOM     21  H   LIG d   1      -7.750  93.852 117.746  0.00  0.00    -0.090 HD
ENDBRANCH   5  18
BRANCH   3  22
ATOM     22  C   LIG d   1      -5.627  89.858 116.123  0.00  0.00     0.382 C 
ATOM     23  O   LIG d   1      -6.821  89.537 115.916  0.00  0.00    -0.241 OA
ATOM     24  O   LIG d   1      -4.717  89.258 115.521  0.00  0.00    -0.241 OA
ENDBRANCH   3  22
TORSDOF 7
ENDMDL
MODEL 3
REMARK VINA RESULT:      -4.7      2.651      5.947
REMARK  7 active torsions:
REMARK  status: ('A' for Active; 'I' for Inactive)
REMARK    1  A    between atoms: C_2  and  C_3 
REMARK    2  A    between atoms: C_3  and  O_6 
REMARK    3  A    between atoms: C_3  and  C_4 
REMARK    4  A    between atoms: C_7  and  O_6 
REMARK    5  A    between atoms: C_9  and  C_10 
REMARK    6  A    between atoms: N_15  and  C_14 
REMARK    7  A    between atoms: N_20  and  C_19 
REMARK       I    between atoms: C_22  and  N_20 
ROOT
ATOM      1  C   LIG d   1      -3.642  92.787 119.147  0.00  0.00     0.161 C 
ATOM      2  C   LIG d   1      -3.673  91.790 118.158  0.00  0.00     0.016 C 
ATOM      3  C   LIG d   1      -4.869  91.276 117.607  0.00  0.00     0.038 C 
ATOM      4  C   LIG d   1      -6.121  91.836 117.902  0.00  0.00     0.028 C 
ATOM      5  C   LIG d   1      -6.179  92.503 119.272  0.00  0.00    -0.047 C 
ATOM      6  C   LIG d   1      -4.994  93.487 119.401  0.00  0.00     0.091 C 
ENDROOT
BRANCH   1   7
ATOM      7  O   LIG d   1      -2.626  93.759 118.831  0.00  0.00    -0.368 OA
BRANCH   7   8
ATOM      8  C   LIG d   1      -1.437  93.730 119.658  0.00  0.00     0.119 C 
BRANCH   8   9
ATOM      9  C   LIG d   1      -1.392  95.050 120.450  0.00  0.00     0.028 C 
ATOM     10  C   LIG d   1      -2.104  96.200 119.717  0.00  0.00     0.006 C 
ENDBRANCH   8   9
BRANCH   8  11
ATOM     11  C   LIG d   1      -0.165  93.725 118.804  0.00  0.00     0.028 C 
ATOM     12  C   LIG d   1      -0.351  93.004 117.460  0.00  0.00     0.006 C 
ENDBRANCH   8  11
ENDBRANCH   7   8
ENDBRANCH   1   7
BRANCH   6  13
ATOM     13  N   LIG d   1      -4.927  94.121 120.744  0.00  0.00    -0.311 N 
ATOM     14  C   LIG d   1      -5.473  95.303 121.025  0.00  0.00     0.210 C 
ATOM     15  C   LIG d   1      -5.270  95.783 122.465  0.00  0.00     0.109 C 
ATOM     16  O   LIG d   1      -6.134  95.984 120.227  0.00  0.00    -0.276 OA
ATOM     17  H   LIG d   1      -4.435  93.622 121.459  0.00  0.00     0.149 HD
ENDBRANCH   6  13
BRANCH   5  18
ATOM     18  N   LIG d   1      -7.493  93.162 119.392  0.00  0.00     0.381 N 
ATOM     19  H   LIG d   1      -7.378  94.081 119.771  0.00  0.00    -0.090 HD
ATOM     20  H   LIG d   1      -8.067  92.630 120.023  0.00  0.00    -0.090 HD
ATOM     21  H   LIG d   1      -7.931  93.215 118.499  0.00  0.00    -0.090 HD
ENDBRANCH   5  18
BRANCH   3  22
ATOM     22  C   LIG d   1      -4.823  90.164 116.780  0.00  0.00     0.382 C 
ATOM     23  O   LIG d   1      -5.820  89.860 116.082  0.00  0.00    -0.241 OA
ATOM     24  O   LIG d   1      -3.813  89.435 116.758  0.00  0.00    -0.241 OA
ENDBRANCH   3  22
TORSDOF 7
ENDMDL
MODEL 4
REMARK VINA RESULT:      -4.7      2.905      6.958
REMARK  7 active torsions:
REMARK  status: ('A' for Active; 'I' for Inactive)
REMARK    1  A    between atoms: C_2  and  C_3 
REMARK    2  A    between atoms: C_3  and  O_6 
REMARK    3  A    between atoms: C_3  and  C_4 
REMARK    4  A    between atoms: C_7  and  O_6 
REMARK    5  A    between atoms: C_9  and  C_10 
REMARK    6  A    between atoms: N_15  and  C_14 
REMARK    7  A    between atoms: N_20  and  C_19 
REMARK       I    between atoms: C_22  and  N_20 
ROOT
ATOM      1  C   LIG d   1      -3.527  90.810 118.434  0.00  0.00     0.161 C 
ATOM      2  C   LIG d   1      -4.283  90.337 117.349  0.00  0.00     0.016 C 
ATOM      3  C   LIG d   1      -5.446  90.983 116.870  0.00  0.00     0.038 C 
ATOM      4  C   LIG d   1      -5.849  92.238 117.353  0.00  0.00     0.028 C 
ATOM      5  C   LIG d   1      -5.405  92.506 118.787  0.00  0.00    -0.047 C 
ATOM      6  C   LIG d   1      -3.888  92.235 118.902  0.00  0.00     0.091 C 
ENDROOT
BRANCH   1   7
ATOM      7  O   LIG d   1      -2.122  90.724 118.125  0.00  0.00    -0.368 OA
BRANCH   7   8
ATOM      8  C   LIG d   1      -1.614  89.400 117.830  0.00  0.00     0.119 C 
BRANCH   8   9
ATOM      9  C   LIG d   1      -1.318  88.708 119.175  0.00  0.00     0.028 C 
ATOM     10  C   LIG d   1      -2.183  87.456 119.394  0.00  0.00     0.006 C 
ENDBRANCH   8   9
BRANCH   8  11
ATOM     11  C   LIG d   1      -0.267  89.469 117.105  0.00  0.00     0.028 C 
ATOM     12  C   LIG d   1       0.241  90.908 116.927  0.00  0.00     0.006 C 
ENDBRANCH   8  11
ENDBRANCH   7   8
ENDBRANCH   1   7
BRANCH   6  13
ATOM     13  N   LIG d   1      -3.387  92.393 120.292  0.00  0.00    -0.311 N 
ATOM     14  C   LIG d   1      -2.873  93.528 120.762  0.00  0.00     0.210 C 
ATOM     15  C   LIG d   1      -2.399  93.469 122.218  0.00  0.00     0.109 C 
ATOM     16  O   LIG d   1      -2.795  94.587 120.122  0.00  0.00    -0.276 OA
ATOM     17  H   LIG d   1      -3.442  91.592 120.890  0.00  0.00     0.149 HD
ENDBRANCH   6  13
BRANCH   5  18
ATOM     18  N   LIG d   1      -5.771  93.897 119.113  0.00  0.00     0.381 N 
ATOM     19  H   LIG d   1      -4.986  94.499 118.959  0.00  0.00    -0.090 HD
ATOM     20  H   LIG d   1      -6.021  93.948 120.085  0.00  0.00    -0.090 HD
ATOM     21  H   LIG d   1      -6.538  94.189 118.550  0.00  0.00    -0.090 HD
ENDBRANCH   5  18
BRANCH   3  22
ATOM     22  C   LIG d   1      -6.242  90.355 115.925  0.00  0.00     0.382 C 
ATOM     23  O   LIG d   1      -5.882  89.259 115.431  0.00  0.00    -0.241 OA
ATOM     24  O   LIG d   1      -7.294  90.891 115.527  0.00  0.00    -0.241 OA
ENDBRANCH   3  22
TORSDOF 7
ENDMDL
MODEL 5
REMARK VINA RESULT:      -4.6      2.243      5.644
REMARK  7 active torsions:
REMARK  status: ('A' for Active; 'I' for Inactive)
REMARK    1  A    between atoms: C_2  and  C_3 
REMARK    2  A    between atoms: C_3  and  O_6 
REMARK    3  A    between atoms: C_3  and  C_4 
REMARK    4  A    between atoms: C_7  and  O_6 
REMARK    5  A    between atoms: C_9  and  C_10 
REMARK    6  A    between atoms: N_15  and  C_14 
REMARK    7  A    between atoms: N_20  and  C_19 
REMARK       I    between atoms: C_22  and  N_20 
ROOT
ATOM      1  C   LIG d   1      -5.024  92.670 118.991  0.00  0.00     0.161 C 
ATOM      2  C   LIG d   1      -6.393  92.981 118.935  0.00  0.00     0.016 C 
ATOM      3  C   LIG d   1      -6.947  94.160 119.486  0.00  0.00     0.038 C 
ATOM      4  C   LIG d   1      -6.141  95.186 120.001  0.00  0.00     0.028 C 
ATOM      5  C   LIG d   1      -4.800  94.694 120.534  0.00  0.00    -0.047 C 
ATOM      6  C   LIG d   1      -4.116  93.830 119.451  0.00  0.00     0.091 C 
ENDROOT
BRANCH   1   7
ATOM      7  O   LIG d   1      -4.585  92.165 117.714  0.00  0.00    -0.368 OA
BRANCH   7   8
ATOM      8  C   LIG d   1      -5.129  90.883 117.314  0.00  0.00     0.119 C 
BRANCH   8   9
ATOM      9  C   LIG d   1      -3.940  89.945 117.029  0.00  0.00     0.028 C 
ATOM     10  C   LIG d   1      -3.066  89.710 118.272  0.00  0.00     0.006 C 
ENDBRANCH   8   9
BRANCH   8  11
ATOM     11  C   LIG d   1      -5.889  90.990 115.989  0.00  0.00     0.028 C 
ATOM     12  C   LIG d   1      -7.030  89.966 115.873  0.00  0.00     0.006 C 
ENDBRANCH   8  11
ENDBRANCH   7   8
ENDBRANCH   1   7
BRANCH   6  13
ATOM     13  N   LIG d   1      -2.836  93.239 119.922  0.00  0.00    -0.311 N 
ATOM     14  C   LIG d   1      -1.654  93.832 119.766  0.00  0.00     0.210 C 
ATOM     15  C   LIG d   1      -0.458  93.042 120.306  0.00  0.00     0.109 C 
ATOM     16  O   LIG d   1      -1.486  94.952 119.261  0.00  0.00    -0.276 OA
ATOM     17  H   LIG d   1      -2.884  92.345 120.371  0.00  0.00     0.149 HD
ENDBRANCH   6  13
BRANCH   5  18
ATOM     18  N   LIG d   1      -4.009  95.880 120.913  0.00  0.00     0.381 N 
ATOM     19  H   LIG d   1      -4.619  96.609 121.224  0.00  0.00    -0.090 HD
ATOM     20  H   LIG d   1      -3.510  96.209 120.105  0.00  0.00    -0.090 HD
ATOM     21  H   LIG d   1      -3.365  95.644 121.636  0.00  0.00    -0.090 HD
ENDBRANCH   5  18
BRANCH   3  22
ATOM     22  C   LIG d   1      -8.324  94.302 119.561  0.00  0.00     0.382 C 
ATOM     23  O   LIG d   1      -8.958  94.785 118.592  0.00  0.00    -0.241 OA
ATOM     24  O   LIG d   1      -8.935  93.996 120.602  0.00  0.00    -0.241 OA
ENDBRANCH   3  22
TORSDOF 7
ENDMDL
MODEL 6
REMARK VINA RESULT:      -4.6      5.707      8.376
REMARK  7 active torsions:
REMARK  status: ('A' for Active; 'I' for Inactive)
REMARK    1  A    between atoms: C_2  and  C_3 
REMARK    2  A    between atoms: C_3  and  O_6 
REMARK    3  A    between atoms: C_3  and  C_4 
REMARK    4  A    between atoms: C_7  and  O_6 
REMARK    5  A    between atoms: C_9  and  C_10 
REMARK    6  A    between atoms: N_15  and  C_14 
REMARK    7  A    between atoms: N_20  and  C_19 
REMARK       I    between atoms: C_22  and  N_20 
ROOT
ATOM      1  C   LIG d   1       0.339  90.721 116.610  0.00  0.00     0.161 C 
ATOM      2  C   LIG d   1       1.738  90.717 116.483  0.00  0.00     0.016 C 
ATOM      3  C   LIG d   1       2.594  91.516 117.275  0.00  0.00     0.038 C 
ATOM      4  C   LIG d   1       2.115  92.266 118.359  0.00  0.00     0.028 C 
ATOM      5  C   LIG d   1       0.659  92.693 118.204  0.00  0.00    -0.047 C 
ATOM      6  C   LIG d   1      -0.194  91.450 117.862  0.00  0.00     0.091 C 
ENDROOT
BRANCH   1   7
ATOM      7  O   LIG d   1      -0.160  89.370 116.567  0.00  0.00    -0.368 OA
BRANCH   7   8
ATOM      8  C   LIG d   1      -0.413  88.742 117.848  0.00  0.00     0.119 C 
BRANCH   8   9
ATOM      9  C   LIG d   1       0.522  87.522 117.959  0.00  0.00     0.028 C 
ATOM     10  C   LIG d   1       0.872  86.925 116.586  0.00  0.00     0.006 C 
ENDBRANCH   8   9
BRANCH   8  11
ATOM     11  C   LIG d   1      -1.833  88.173 117.919  0.00  0.00     0.028 C 
ATOM     12  C   LIG d   1      -2.268  87.835 119.354  0.00  0.00     0.006 C 
ENDBRANCH   8  11
ENDBRANCH   7   8
ENDBRANCH   1   7
BRANCH   6  13
ATOM     13  N   LIG d   1      -1.618  91.792 117.610  0.00  0.00    -0.311 N 
ATOM     14  C   LIG d   1      -2.562  91.739 118.549  0.00  0.00     0.210 C 
ATOM     15  C   LIG d   1      -3.969  92.113 118.073  0.00  0.00     0.109 C 
ATOM     16  O   LIG d   1      -2.361  91.448 119.738  0.00  0.00    -0.276 OA
ATOM     17  H   LIG d   1      -1.864  92.068 116.680  0.00  0.00     0.149 HD
ENDBRANCH   6  13
BRANCH   5  18
ATOM     18  N   LIG d   1       0.250  93.346 119.462  0.00  0.00     0.381 N 
ATOM     19  H   LIG d   1       0.924  93.158 120.176  0.00  0.00    -0.090 HD
ATOM     20  H   LIG d   1      -0.633  92.966 119.753  0.00  0.00    -0.090 HD
ATOM     21  H   LIG d   1       0.166  94.330 119.324  0.00  0.00    -0.090 HD
ENDBRANCH   5  18
BRANCH   3  22
ATOM     22  C   LIG d   1       3.942  91.600 116.961  0.00  0.00     0.382 C 
ATOM     23  O   LIG d   1       4.590  92.634 117.251  0.00  0.00    -0.241 OA
ATOM     24  O   LIG d   1       4.507  90.673 116.350  0.00  0.00    -0.241 OA
ENDBRANCH   3  22
TORSDOF 7
ENDMDL
MODEL 7
REMARK VINA RESULT:      -4.4      5.455      7.363
REMARK  7 active torsions:
REMARK  status: ('A' for Active; 'I' for Inactive)
REMARK    1  A    between atoms: C_2  and  C_3 
REMARK    2  A    between atoms: C_3  and  O_6 
REMARK    3  A    between atoms: C_3  and  C_4 
REMARK    4  A    between atoms: C_7  and  O_6 
REMARK    5  A    between atoms: C_9  and  C_10 
REMARK    6  A    between atoms: N_15  and  C_14 
REMARK    7  A    between atoms: N_20  and  C_19 
REMARK       I    between atoms: C_22  and  N_20 
ROOT
ATOM      1  C   LIG d   1       0.639  90.491 118.965  0.00  0.00     0.161 C 
ATOM      2  C   LIG d   1       1.732  91.067 118.297  0.00  0.00     0.016 C 
ATOM      3  C   LIG d   1       2.268  90.553 117.094  0.00  0.00     0.038 C 
ATOM      4  C   LIG d   1       1.647  89.509 116.392  0.00  0.00     0.028 C 
ATOM      5  C   LIG d   1       0.839  88.575 117.287  0.00  0.00    -0.047 C 
ATOM      6  C   LIG d   1      -0.120  89.418 118.157  0.00  0.00     0.091 C 
ENDROOT
BRANCH   1   7
ATOM      7  O   LIG d   1      -0.267  91.524 119.402  0.00  0.00    -0.368 OA
BRANCH   7   8
ATOM      8  C   LIG d   1      -1.272  91.936 118.444  0.00  0.00     0.119 C 
BRANCH   8   9
ATOM      9  C   LIG d   1      -0.971  93.397 118.057  0.00  0.00     0.028 C 
ATOM     10  C   LIG d   1      -0.897  94.325 119.282  0.00  0.00     0.006 C 
ENDBRANCH   8   9
BRANCH   8  11
ATOM     11  C   LIG d   1      -2.667  91.963 119.076  0.00  0.00     0.028 C 
ATOM     12  C   LIG d   1      -3.794  91.840 118.039  0.00  0.00     0.006 C 
ENDBRANCH   8  11
ENDBRANCH   7   8
ENDBRANCH   1   7
BRANCH   6  13
ATOM     13  N   LIG d   1      -0.888  88.588 119.121  0.00  0.00    -0.311 N 
ATOM     14  C   LIG d   1      -2.133  88.169 118.899  0.00  0.00     0.210 C 
ATOM     15  C   LIG d   1      -2.749  87.341 120.032  0.00  0.00     0.109 C 
ATOM     16  O   LIG d   1      -2.774  88.376 117.857  0.00  0.00    -0.276 OA
ATOM     17  H   LIG d   1      -0.433  88.347 119.980  0.00  0.00     0.149 HD
ENDBRANCH   6  13
BRANCH   5  18
ATOM     18  N   LIG d   1       0.136  87.618 116.412  0.00  0.00     0.381 N 
ATOM     19  H   LIG d   1      -0.852  87.696 116.548  0.00  0.00    -0.090 HD
ATOM     20  H   LIG d   1       0.416  86.685 116.659  0.00  0.00    -0.090 HD
ATOM     21  H   LIG d   1       0.362  87.798 115.458  0.00  0.00    -0.090 HD
ENDBRANCH   5  18
BRANCH   3  22
ATOM     22  C   LIG d   1       3.461  91.060 116.602  0.00  0.00     0.382 C 
ATOM     23  O   LIG d   1       3.897  92.158 117.023  0.00  0.00    -0.241 OA
ATOM     24  O   LIG d   1       4.084  90.454 115.709  0.00  0.00    -0.241 OA
ENDBRANCH   3  22
TORSDOF 7
ENDMDL
MODEL 8
REMARK VINA RESULT:      -4.2      2.481      5.378
REMARK  7 active torsions:
REMARK  status: ('A' for Active; 'I' for Inactive)
REMARK    1  A    between atoms: C_2  and  C_3 
REMARK    2  A    between atoms: C_3  and  O_6 
REMARK    3  A    between atoms: C_3  and  C_4 
REMARK    4  A    between atoms: C_7  and  O_6 
REMARK    5  A    between atoms: C_9  and  C_10 
REMARK    6  A    between atoms: N_15  and  C_14 
REMARK    7  A    between atoms: N_20  and  C_19 
REMARK       I    between atoms: C_22  and  N_20 
ROOT
ATOM      1  C   LIG d   1      -3.749  92.323 118.683  0.00  0.00     0.161 C 
ATOM      2  C   LIG d   1      -4.924  92.000 117.984  0.00  0.00     0.016 C 
ATOM      3  C   LIG d   1      -5.032  90.890 117.115  0.00  0.00     0.038 C 
ATOM      4  C   LIG d   1      -4.012  89.934 117.002  0.00  0.00     0.028 C 
ATOM      5  C   LIG d   1      -2.624  90.492 117.300  0.00  0.00    -0.047 C 
ATOM      6  C   LIG d   1      -2.661  91.229 118.658  0.00  0.00     0.091 C 
ENDROOT
BRANCH   1   7
ATOM      7  O   LIG d   1      -4.071  92.679 120.042  0.00  0.00    -0.368 OA
BRANCH   7   8
ATOM      8  C   LIG d   1      -3.895  94.073 120.394  0.00  0.00     0.119 C 
BRANCH   8   9
ATOM      9  C   LIG d   1      -5.297  94.701 120.517  0.00  0.00     0.028 C 
ATOM     10  C   LIG d   1      -5.453  95.961 119.650  0.00  0.00     0.006 C 
ENDBRANCH   8   9
BRANCH   8  11
ATOM     11  C   LIG d   1      -3.200  94.848 119.271  0.00  0.00     0.028 C 
ATOM     12  C   LIG d   1      -1.809  95.362 119.674  0.00  0.00     0.006 C 
ENDBRANCH   8  11
ENDBRANCH   7   8
ENDBRANCH   1   7
BRANCH   6  13
ATOM     13  N   LIG d   1      -1.364  91.877 118.987  0.00  0.00    -0.311 N 
ATOM     14  C   LIG d   1      -0.744  91.725 120.156  0.00  0.00     0.210 C 
ATOM     15  C   LIG d   1       0.571  92.497 120.295  0.00  0.00     0.109 C 
ATOM     16  O   LIG d   1      -1.143  90.999 121.079  0.00  0.00    -0.276 OA
ATOM     17  H   LIG d   1      -0.954  92.459 118.283  0.00  0.00     0.149 HD
ENDBRANCH   6  13
BRANCH   5  18
ATOM     18  N   LIG d   1      -1.676  89.362 117.281  0.00  0.00     0.381 N 
ATOM     19  H   LIG d   1      -1.492  89.090 116.336  0.00  0.00    -0.090 HD
ATOM     20  H   LIG d   1      -2.091  88.581 117.759  0.00  0.00    -0.090 HD
ATOM     21  H   LIG d   1      -0.826  89.622 117.731  0.00  0.00    -0.090 HD
ENDBRANCH   5  18
BRANCH   3  22
ATOM     22  C   LIG d   1      -6.157  90.750 116.316  0.00  0.00     0.382 C 
ATOM     23  O   LIG d   1      -6.596  89.605 116.046  0.00  0.00    -0.241 OA
ATOM     24  O   LIG d   1      -6.713  91.751 115.826  0.00  0.00    -0.241 OA
ENDBRANCH   3  22
TORSDOF 7
ENDMDL
MODEL 9
REMARK VINA RESULT:      -4.2      3.831      6.317
REMARK  7 active torsions:
REMARK  status: ('A' for Active; 'I' for Inactive)
REMARK    1  A    between atoms: C_2  and  C_3 
REMARK    2  A    between atoms: C_3  and  O_6 
REMARK    3  A    between atoms: C_3  and  C_4 
REMARK    4  A    between atoms: C_7  and  O_6 
REMARK    5  A    between atoms: C_9  and  C_10 
REMARK    6  A    between atoms: N_15  and  C_14 
REMARK    7  A    between atoms: N_20  and  C_19 
REMARK       I    between atoms: C_22  and  N_20 
ROOT
ATOM      1  C   LIG d   1      -1.700  90.526 117.871  0.00  0.00     0.161 C 
ATOM      2  C   LIG d   1      -0.437  90.980 118.287  0.00  0.00     0.016 C 
ATOM      3  C   LIG d   1      -0.191  92.300 118.729  0.00  0.00     0.038 C 
ATOM      4  C   LIG d   1      -1.230  93.221 118.929  0.00  0.00     0.028 C 
ATOM      5  C   LIG d   1      -2.446  92.964 118.045  0.00  0.00    -0.047 C 
ATOM      6  C   LIG d   1      -2.867  91.484 118.188  0.00  0.00     0.091 C 
ENDROOT
BRANCH   1   7
ATOM      7  O   LIG d   1      -1.957  89.221 118.426  0.00  0.00    -0.368 OA
BRANCH   7   8
ATOM      8  C   LIG d   1      -1.240  88.893 119.642  0.00  0.00     0.119 C 
BRANCH   8   9
ATOM      9  C   LIG d   1      -0.769  87.431 119.521  0.00  0.00     0.028 C 
ATOM     10  C   LIG d   1      -1.834  86.429 119.997  0.00  0.00     0.006 C 
ENDBRANCH   8   9
BRANCH   8  11
ATOM     11  C   LIG d   1      -2.168  88.920 120.860  0.00  0.00     0.028 C 
ATOM     12  C   LIG d   1      -2.096  90.246 121.635  0.00  0.00     0.006 C 
ENDBRANCH   8  11
ENDBRANCH   7   8
ENDBRANCH   1   7
BRANCH   6  13
ATOM     13  N   LIG d   1      -3.998  91.127 117.292  0.00  0.00    -0.311 N 
ATOM     14  C   LIG d   1      -5.277  91.217 117.654  0.00  0.00     0.210 C 
ATOM     15  C   LIG d   1      -6.283  90.780 116.585  0.00  0.00     0.109 C 
ATOM     16  O   LIG d   1      -5.674  91.648 118.747  0.00  0.00    -0.276 OA
ATOM     17  H   LIG d   1      -3.767  90.798 116.375  0.00  0.00     0.149 HD
ENDBRANCH   6  13
BRANCH   5  18
ATOM     18  N   LIG d   1      -3.502  93.909 118.454  0.00  0.00     0.381 N 
ATOM     19  H   LIG d   1      -3.192  94.849 118.306  0.00  0.00    -0.090 HD
ATOM     20  H   LIG d   1      -3.685  93.788 119.434  0.00  0.00    -0.090 HD
ATOM     21  H   LIG d   1      -4.333  93.739 117.930  0.00  0.00    -0.090 HD
ENDBRANCH   5  18
BRANCH   3  22
ATOM     22  C   LIG d   1       1.113  92.724 118.937  0.00  0.00     0.382 C 
ATOM     23  O   LIG d   1       1.994  92.487 118.075  0.00  0.00    -0.241 OA
ATOM     24  O   LIG d   1       1.429  93.300 119.995  0.00  0.00    -0.241 OA
ENDBRANCH   3  22
TORSDOF 7
ENDMDL
