MODEL 1
REMARK VINA RESULT:      -5.4      0.000      0.000
REMARK  7 active torsions:
REMARK  status: ('A' for Active; 'I' for Inactive)
REMARK    1  A    between atoms: C_2  and  C_3 
REMARK    2  A    between atoms: C_3  and  O_6 
REMARK    3  A    between atoms: C_3  and  C_4 
REMARK    4  A    between atoms: C_7  and  O_6 
REMARK    5  A    between atoms: C_9  and  C_10 
REMARK    6  A    between atoms: N_15  and  C_14 
REMARK    7  A    between atoms: N_20  and  C_19 
REMARK       I    between atoms: C_22  and  N_20 
ROOT
ATOM      1  C   LIG d   1      -6.216  93.317 118.778  0.00  0.00     0.161 C 
ATOM      2  C   LIG d   1      -7.060  92.542 117.965  0.00  0.00     0.016 C 
ATOM      3  C   LIG d   1      -6.597  91.481 117.152  0.00  0.00     0.038 C 
ATOM      4  C   LIG d   1      -5.273  91.024 117.213  0.00  0.00     0.028 C 
ATOM      5  C   LIG d   1      -4.279  92.099 117.640  0.00  0.00    -0.047 C 
ATOM      6  C   LIG d   1      -4.786  92.761 118.942  0.00  0.00     0.091 C 
ENDROOT
BRANCH   1   7
ATOM      7  O   LIG d   1      -6.828  93.515 120.068  0.00  0.00    -0.368 OA
BRANCH   7   8
ATOM      8  C   LIG d   1      -7.296  94.856 120.352  0.00  0.00     0.119 C 
BRANCH   8   9
ATOM      9  C   LIG d   1      -8.834  94.841 120.253  0.00  0.00     0.028 C 
ATOM     10  C   LIG d   1      -9.343  95.436 118.930  0.00  0.00     0.006 C 
ENDBRANCH   8   9
BRANCH   8  11
ATOM     11  C   LIG d   1      -6.831  95.848 119.282  0.00  0.00     0.028 C 
ATOM     12  C   LIG d   1      -5.851  96.899 119.828  0.00  0.00     0.006 C 
ENDBRANCH   8  11
ENDBRANCH   7   8
ENDBRANCH   1   7
BRANCH   6  13
ATOM     13  N   LIG d   1      -3.916  93.882 119.383  0.00  0.00    -0.311 N 
ATOM     14  C   LIG d   1      -2.933  93.741 120.270  0.00  0.00     0.210 C 
ATOM     15  C   LIG d   1      -2.170  95.028 120.601  0.00  0.00     0.109 C 
ATOM     16  O   LIG d   1      -2.598  92.666 120.791  0.00  0.00    -0.276 OA
ATOM     17  H   LIG d   1      -4.097  94.784 118.988  0.00  0.00     0.149 HD
ENDBRANCH   6  13
BRANCH   5  18
ATOM     18  N   LIG d   1      -2.962  91.453 117.795  0.00  0.00     0.381 N 
ATOM     19  H   LIG d   1      -2.414  91.958 118.462  0.00  0.00    -0.090 HD
ATOM     20  H   LIG d   1      -2.484  91.475 116.912  0.00  0.00    -0.090 HD
ATOM     21  H   LIG d   1      -3.078  90.510 118.095  0.00  0.00    -0.090 HD
ENDBRANCH   5  18
BRANCH   3  22
ATOM     22  C   LIG d   1      -7.456  90.893 116.236  0.00  0.00     0.382 C 
ATOM     23  O   LIG d   1      -8.430  91.541 115.784  0.00  0.00    -0.241 OA
ATOM     24  O   LIG d   1      -7.295  89.707 115.890  0.00  0.00    -0.241 OA
ENDBRANCH   3  22
TORSDOF 7
ENDMDL
MODEL 2
REMARK VINA RESULT:      -5.2      0.504      1.628
REMARK  7 active torsions:
REMARK  status: ('A' for Active; 'I' for Inactive)
REMARK    1  A    between atoms: C_2  and  C_3 
REMARK    2  A    between atoms: C_3  and  O_6 
REMARK    3  A    between atoms: C_3  and  C_4 
REMARK    4  A    between atoms: C_7  and  O_6 
REMARK    5  A    between atoms: C_9  and  C_10 
REMARK    6  A    between atoms: N_15  and  C_14 
REMARK    7  A    between atoms: N_20  and  C_19 
REMARK       I    between atoms: C_22  and  N_20 
ROOT
ATOM      1  C   LIG d   1      -6.322  93.323 118.442  0.00  0.00     0.161 C 
ATOM      2  C   LIG d   1      -7.210  92.541 117.685  0.00  0.00     0.016 C 
ATOM      3  C   LIG d   1      -6.816  91.384 116.973  0.00  0.00     0.038 C 
ATOM      4  C   LIG d   1      -5.527  90.843 117.094  0.00  0.00     0.028 C 
ATOM      5  C   LIG d   1      -4.465  91.881 117.443  0.00  0.00    -0.047 C 
ATOM      6  C   LIG d   1      -4.936  92.686 118.675  0.00  0.00     0.091 C 
ENDROOT
BRANCH   1   7
ATOM      7  O   LIG d   1      -6.931  93.674 119.701  0.00  0.00    -0.368 OA
BRANCH   7   8
ATOM      8  C   LIG d   1      -7.562  94.976 119.763  0.00  0.00     0.119 C 
BRANCH   8   9
ATOM      9  C   LIG d   1      -6.727  95.851 120.718  0.00  0.00     0.028 C 
ATOM     10  C   LIG d   1      -5.772  96.793 119.966  0.00  0.00     0.006 C 
ENDBRANCH   8   9
BRANCH   8  11
ATOM     11  C   LIG d   1      -8.952  94.892 120.401  0.00  0.00     0.028 C 
ATOM     12  C   LIG d   1     -10.076  94.739 119.364  0.00  0.00     0.006 C 
ENDBRANCH   8  11
ENDBRANCH   7   8
ENDBRANCH   1   7
BRANCH   6  13
ATOM     13  N   LIG d   1      -3.994  93.778 119.032  0.00  0.00    -0.311 N 
ATOM     14  C   LIG d   1      -3.028  93.646 119.940  0.00  0.00     0.210 C 
ATOM     15  C   LIG d   1      -2.181  94.901 120.171  0.00  0.00     0.109 C 
ATOM     16  O   LIG d   1      -2.772  92.598 120.552  0.00  0.00    -0.276 OA
ATOM     17  H   LIG d   1      -4.110  94.654 118.561  0.00  0.00     0.149 HD
ENDBRANCH   6  13
BRANCH   5  18
ATOM     18  N   LIG d   1      -3.198  91.161 117.673  0.00  0.00     0.381 N 
ATOM     19  H   LIG d   1      -3.246  90.657 118.536  0.00  0.00    -0.090 HD
ATOM     20  H   LIG d   1      -2.452  91.830 117.740  0.00  0.00    -0.090 HD
ATOM     21  H   LIG d   1      -3.023  90.531 116.921  0.00  0.00    -0.090 HD
ENDBRANCH   5  18
BRANCH   3  22
ATOM     22  C   LIG d   1      -7.705  90.779 116.098  0.00  0.00     0.382 C 
ATOM     23  O   LIG d   1      -8.630  91.451 115.580  0.00  0.00    -0.241 OA
ATOM     24  O   LIG d   1      -7.621  89.561 115.855  0.00  0.00    -0.241 OA
ENDBRANCH   3  22
TORSDOF 7
ENDMDL
MODEL 3
REMARK VINA RESULT:      -5.2      1.988      4.197
REMARK  7 active torsions:
REMARK  status: ('A' for Active; 'I' for Inactive)
REMARK    1  A    between atoms: C_2  and  C_3 
REMARK    2  A    between atoms: C_3  and  O_6 
REMARK    3  A    between atoms: C_3  and  C_4 
REMARK    4  A    between atoms: C_7  and  O_6 
REMARK    5  A    between atoms: C_9  and  C_10 
REMARK    6  A    between atoms: N_15  and  C_14 
REMARK    7  A    between atoms: N_20  and  C_19 
REMARK       I    between atoms: C_22  and  N_20 
ROOT
ATOM      1  C   LIG d   1      -4.833  92.318 118.365  0.00  0.00     0.161 C 
ATOM      2  C   LIG d   1      -5.051  91.383 117.340  0.00  0.00     0.016 C 
ATOM      3  C   LIG d   1      -6.285  91.243 116.663  0.00  0.00     0.038 C 
ATOM      4  C   LIG d   1      -7.346  92.138 116.864  0.00  0.00     0.028 C 
ATOM      5  C   LIG d   1      -7.344  92.780 118.247  0.00  0.00    -0.047 C 
ATOM      6  C   LIG d   1      -5.944  93.378 118.521  0.00  0.00     0.091 C 
ENDROOT
BRANCH   1   7
ATOM      7  O   LIG d   1      -3.554  92.957 118.180  0.00  0.00    -0.368 OA
BRANCH   7   8
ATOM      8  C   LIG d   1      -2.417  92.292 118.783  0.00  0.00     0.119 C 
BRANCH   8   9
ATOM      9  C   LIG d   1      -2.706  92.157 120.291  0.00  0.00     0.028 C 
ATOM     10  C   LIG d   1      -2.400  93.450 121.065  0.00  0.00     0.006 C 
ENDBRANCH   8   9
BRANCH   8  11
ATOM     11  C   LIG d   1      -1.154  93.153 118.688  0.00  0.00     0.028 C 
ATOM     12  C   LIG d   1      -1.249  94.233 117.598  0.00  0.00     0.006 C 
ENDBRANCH   8  11
ENDBRANCH   7   8
ENDBRANCH   1   7
BRANCH   6  13
ATOM     13  N   LIG d   1      -5.830  93.952 119.887  0.00  0.00    -0.311 N 
ATOM     14  C   LIG d   1      -6.042  95.237 120.162  0.00  0.00     0.210 C 
ATOM     15  C   LIG d   1      -5.852  95.624 121.632  0.00  0.00     0.109 C 
ATOM     16  O   LIG d   1      -6.401  96.088 119.333  0.00  0.00    -0.276 OA
ATOM     17  H   LIG d   1      -5.574  93.325 120.625  0.00  0.00     0.149 HD
ENDBRANCH   6  13
BRANCH   5  18
ATOM     18  N   LIG d   1      -8.418  93.791 118.271  0.00  0.00     0.381 N 
ATOM     19  H   LIG d   1      -8.485  94.236 117.377  0.00  0.00    -0.090 HD
ATOM     20  H   LIG d   1      -8.191  94.490 118.956  0.00  0.00    -0.090 HD
ATOM     21  H   LIG d   1      -9.286  93.360 118.501  0.00  0.00    -0.090 HD
ENDBRANCH   5  18
BRANCH   3  22
ATOM     22  C   LIG d   1      -6.479  90.173 115.803  0.00  0.00     0.382 C 
ATOM     23  O   LIG d   1      -7.638  89.871 115.430  0.00  0.00    -0.241 OA
ATOM     24  O   LIG d   1      -5.514  89.479 115.430  0.00  0.00    -0.241 OA
ENDBRANCH   3  22
TORSDOF 7
ENDMDL
MODEL 4
REMARK VINA RESULT:      -4.2      5.402      8.554
REMARK  7 active torsions:
REMARK  status: ('A' for Active; 'I' for Inactive)
REMARK    1  A    between atoms: C_2  and  C_3 
REMARK    2  A    between atoms: C_3  and  O_6 
REMARK    3  A    between atoms: C_3  and  C_4 
REMARK    4  A    between atoms: C_7  and  O_6 
REMARK    5  A    between atoms: C_9  and  C_10 
REMARK    6  A    between atoms: N_15  and  C_14 
REMARK    7  A    between atoms: N_20  and  C_19 
REMARK       I    between atoms: C_22  and  N_20 
ROOT
ATOM      1  C   LIG d   1       0.252  89.889 117.810  0.00  0.00     0.161 C 
ATOM      2  C   LIG d   1       1.650  89.985 117.714  0.00  0.00     0.016 C 
ATOM      3  C   LIG d   1       2.344  91.215 117.659  0.00  0.00     0.038 C 
ATOM      4  C   LIG d   1       1.692  92.443 117.849  0.00  0.00     0.028 C 
ATOM      5  C   LIG d   1       0.223  92.418 117.444  0.00  0.00    -0.047 C 
ATOM      6  C   LIG d   1      -0.467  91.217 118.130  0.00  0.00     0.091 C 
ENDROOT
BRANCH   1   7
ATOM      7  O   LIG d   1      -0.104  88.881 118.776  0.00  0.00    -0.368 OA
BRANCH   7   8
ATOM      8  C   LIG d   1      -0.948  87.806 118.295  0.00  0.00     0.119 C 
BRANCH   8   9
ATOM      9  C   LIG d   1      -2.075  87.605 119.326  0.00  0.00     0.028 C 
ATOM     10  C   LIG d   1      -2.035  88.651 120.452  0.00  0.00     0.006 C 
ENDBRANCH   8   9
BRANCH   8  11
ATOM     11  C   LIG d   1      -0.190  86.476 118.258  0.00  0.00     0.028 C 
ATOM     12  C   LIG d   1      -0.772  85.431 119.223  0.00  0.00     0.006 C 
ENDBRANCH   8  11
ENDBRANCH   7   8
ENDBRANCH   1   7
BRANCH   6  13
ATOM     13  N   LIG d   1      -1.888  91.069 117.721  0.00  0.00    -0.311 N 
ATOM     14  C   LIG d   1      -2.907  91.573 118.416  0.00  0.00     0.210 C 
ATOM     15  C   LIG d   1      -4.293  91.288 117.828  0.00  0.00     0.109 C 
ATOM     16  O   LIG d   1      -2.793  92.255 119.445  0.00  0.00    -0.276 OA
ATOM     17  H   LIG d   1      -2.070  90.556 116.881  0.00  0.00     0.149 HD
ENDBRANCH   6  13
BRANCH   5  18
ATOM     18  N   LIG d   1      -0.366  93.716 117.823  0.00  0.00     0.381 N 
ATOM     19  H   LIG d   1      -0.005  94.438 117.231  0.00  0.00    -0.090 HD
ATOM     20  H   LIG d   1      -0.108  93.926 118.771  0.00  0.00    -0.090 HD
ATOM     21  H   LIG d   1      -1.359  93.677 117.742  0.00  0.00    -0.090 HD
ENDBRANCH   5  18
BRANCH   3  22
ATOM     22  C   LIG d   1       3.700  91.227 117.372  0.00  0.00     0.382 C 
ATOM     23  O   LIG d   1       4.386  90.190 117.543  0.00  0.00    -0.241 OA
ATOM     24  O   LIG d   1       4.255  92.273 116.986  0.00  0.00    -0.241 OA
ENDBRANCH   3  22
TORSDOF 7
ENDMDL
MODEL 5
REMARK VINA RESULT:      -4.1      2.240      4.526
REMARK  7 active torsions:
REMARK  status: ('A' for Active; 'I' for Inactive)
REMARK    1  A    between atoms: C_2  and  C_3 
REMARK    2  A    between atoms: C_3  and  O_6 
REMARK    3  A    between atoms: C_3  and  C_4 
REMARK    4  A    between atoms: C_7  and  O_6 
REMARK    5  A    between atoms: C_9  and  C_10 
REMARK    6  A    between atoms: N_15  and  C_14 
REMARK    7  A    between atoms: N_20  and  C_19 
REMARK       I    between atoms: C_22  and  N_20 
ROOT
ATOM      1  C   LIG d   1      -5.155  93.383 119.535  0.00  0.00     0.161 C 
ATOM      2  C   LIG d   1      -4.871  92.506 118.475  0.00  0.00     0.016 C 
ATOM      3  C   LIG d   1      -5.820  92.137 117.494  0.00  0.00     0.038 C 
ATOM      4  C   LIG d   1      -7.084  92.742 117.422  0.00  0.00     0.028 C 
ATOM      5  C   LIG d   1      -7.588  93.256 118.766  0.00  0.00    -0.047 C 
ATOM      6  C   LIG d   1      -6.494  94.139 119.408  0.00  0.00     0.091 C 
ENDROOT
BRANCH   1   7
ATOM      7  O   LIG d   1      -4.068  94.314 119.704  0.00  0.00    -0.368 OA
BRANCH   7   8
ATOM      8  C   LIG d   1      -3.354  94.240 120.963  0.00  0.00     0.119 C 
BRANCH   8   9
ATOM      9  C   LIG d   1      -2.010  94.969 120.777  0.00  0.00     0.028 C 
ATOM     10  C   LIG d   1      -1.956  95.776 119.468  0.00  0.00     0.006 C 
ENDBRANCH   8   9
BRANCH   8  11
ATOM     11  C   LIG d   1      -2.987  92.794 121.311  0.00  0.00     0.028 C 
ATOM     12  C   LIG d   1      -1.471  92.543 121.290  0.00  0.00     0.006 C 
ENDBRANCH   8  11
ENDBRANCH   7   8
ENDBRANCH   1   7
BRANCH   6  13
ATOM     13  N   LIG d   1      -6.873  94.613 120.765  0.00  0.00    -0.311 N 
ATOM     14  C   LIG d   1      -7.485  95.774 120.991  0.00  0.00     0.210 C 
ATOM     15  C   LIG d   1      -7.767  96.080 122.465  0.00  0.00     0.109 C 
ATOM     16  O   LIG d   1      -7.851  96.564 120.108  0.00  0.00    -0.276 OA
ATOM     17  H   LIG d   1      -6.641  94.020 121.537  0.00  0.00     0.149 HD
ENDBRANCH   6  13
BRANCH   5  18
ATOM     18  N   LIG d   1      -8.848  93.983 118.521  0.00  0.00     0.381 N 
ATOM     19  H   LIG d   1      -8.690  94.724 117.867  0.00  0.00    -0.090 HD
ATOM     20  H   LIG d   1      -9.163  94.387 119.386  0.00  0.00    -0.090 HD
ATOM     21  H   LIG d   1      -9.539  93.359 118.167  0.00  0.00    -0.090 HD
ENDBRANCH   5  18
BRANCH   3  22
ATOM     22  C   LIG d   1      -5.523  91.123 116.597  0.00  0.00     0.382 C 
ATOM     23  O   LIG d   1      -4.775  90.178 116.944  0.00  0.00    -0.241 OA
ATOM     24  O   LIG d   1      -5.958  91.164 115.430  0.00  0.00    -0.241 OA
ENDBRANCH   3  22
TORSDOF 7
ENDMDL
MODEL 6
REMARK VINA RESULT:      -4.0      2.759      5.134
REMARK  7 active torsions:
REMARK  status: ('A' for Active; 'I' for Inactive)
REMARK    1  A    between atoms: C_2  and  C_3 
REMARK    2  A    between atoms: C_3  and  O_6 
REMARK    3  A    between atoms: C_3  and  C_4 
REMARK    4  A    between atoms: C_7  and  O_6 
REMARK    5  A    between atoms: C_9  and  C_10 
REMARK    6  A    between atoms: N_15  and  C_14 
REMARK    7  A    between atoms: N_20  and  C_19 
REMARK       I    between atoms: C_22  and  N_20 
ROOT
ATOM      1  C   LIG d   1      -3.034  92.966 119.867  0.00  0.00     0.161 C 
ATOM      2  C   LIG d   1      -2.867  94.337 119.611  0.00  0.00     0.016 C 
ATOM      3  C   LIG d   1      -1.957  94.845 118.656  0.00  0.00     0.038 C 
ATOM      4  C   LIG d   1      -1.256  94.003 117.779  0.00  0.00     0.028 C 
ATOM      5  C   LIG d   1      -1.016  92.606 118.342  0.00  0.00    -0.047 C 
ATOM      6  C   LIG d   1      -2.360  92.030 118.843  0.00  0.00     0.091 C 
ENDROOT
BRANCH   1   7
ATOM      7  O   LIG d   1      -4.438  92.658 119.979  0.00  0.00    -0.368 OA
BRANCH   7   8
ATOM      8  C   LIG d   1      -5.307  93.278 119.000  0.00  0.00     0.119 C 
BRANCH   8   9
ATOM      9  C   LIG d   1      -6.529  93.838 119.754  0.00  0.00     0.028 C 
ATOM     10  C   LIG d   1      -6.407  95.346 120.029  0.00  0.00     0.006 C 
ENDBRANCH   8   9
BRANCH   8  11
ATOM     11  C   LIG d   1      -5.873  92.244 118.022  0.00  0.00     0.028 C 
ATOM     12  C   LIG d   1      -7.264  92.625 117.491  0.00  0.00     0.006 C 
ENDBRANCH   8  11
ENDBRANCH   7   8
ENDBRANCH   1   7
BRANCH   6  13
ATOM     13  N   LIG d   1      -2.201  90.699 119.486  0.00  0.00    -0.311 N 
ATOM     14  C   LIG d   1      -2.875  89.615 119.105  0.00  0.00     0.210 C 
ATOM     15  C   LIG d   1      -2.576  88.350 119.915  0.00  0.00     0.109 C 
ATOM     16  O   LIG d   1      -3.668  89.575 118.152  0.00  0.00    -0.276 OA
ATOM     17  H   LIG d   1      -1.554  90.635 120.248  0.00  0.00     0.149 HD
ENDBRANCH   6  13
BRANCH   5  18
ATOM     18  N   LIG d   1      -0.401  91.795 117.275  0.00  0.00     0.381 N 
ATOM     19  H   LIG d   1       0.161  92.378 116.687  0.00  0.00    -0.090 HD
ATOM     20  H   LIG d   1      -1.129  91.390 116.713  0.00  0.00    -0.090 HD
ATOM     21  H   LIG d   1       0.160  91.075 117.674  0.00  0.00    -0.090 HD
ENDBRANCH   5  18
BRANCH   3  22
ATOM     22  C   LIG d   1      -1.710  96.208 118.598  0.00  0.00     0.382 C 
ATOM     23  O   LIG d   1      -2.178  96.890 117.655  0.00  0.00    -0.241 OA
ATOM     24  O   LIG d   1      -0.989  96.756 119.453  0.00  0.00    -0.241 OA
ENDBRANCH   3  22
TORSDOF 7
ENDMDL
MODEL 7
REMARK VINA RESULT:      -4.0      3.690      7.180
REMARK  7 active torsions:
REMARK  status: ('A' for Active; 'I' for Inactive)
REMARK    1  A    between atoms: C_2  and  C_3 
REMARK    2  A    between atoms: C_3  and  O_6 
REMARK    3  A    between atoms: C_3  and  C_4 
REMARK    4  A    between atoms: C_7  and  O_6 
REMARK    5  A    between atoms: C_9  and  C_10 
REMARK    6  A    between atoms: N_15  and  C_14 
REMARK    7  A    between atoms: N_20  and  C_19 
REMARK       I    between atoms: C_22  and  N_20 
ROOT
ATOM      1  C   LIG d   1      -1.426  91.546 118.469  0.00  0.00     0.161 C 
ATOM      2  C   LIG d   1      -0.054  91.730 118.708  0.00  0.00     0.016 C 
ATOM      3  C   LIG d   1       0.576  92.996 118.697  0.00  0.00     0.038 C 
ATOM      4  C   LIG d   1      -0.157  94.187 118.595  0.00  0.00     0.028 C 
ATOM      5  C   LIG d   1      -1.477  94.024 117.848  0.00  0.00    -0.047 C 
ATOM      6  C   LIG d   1      -2.261  92.844 118.466  0.00  0.00     0.091 C 
ENDROOT
BRANCH   1   7
ATOM      7  O   LIG d   1      -1.965  90.606 119.419  0.00  0.00    -0.368 OA
BRANCH   7   8
ATOM      8  C   LIG d   1      -1.003  89.940 120.273  0.00  0.00     0.119 C 
BRANCH   8   9
ATOM      9  C   LIG d   1      -1.110  88.427 119.999  0.00  0.00     0.028 C 
ATOM     10  C   LIG d   1      -2.530  87.886 120.237  0.00  0.00     0.006 C 
ENDBRANCH   8   9
BRANCH   8  11
ATOM     11  C   LIG d   1      -1.361  90.110 121.753  0.00  0.00     0.028 C 
ATOM     12  C   LIG d   1      -2.443  91.176 121.986  0.00  0.00     0.006 C 
ENDBRANCH   8  11
ENDBRANCH   7   8
ENDBRANCH   1   7
BRANCH   6  13
ATOM     13  N   LIG d   1      -3.527  92.562 117.741  0.00  0.00    -0.311 N 
ATOM     14  C   LIG d   1      -4.706  92.434 118.346  0.00  0.00     0.210 C 
ATOM     15  C   LIG d   1      -5.881  92.124 117.414  0.00  0.00     0.109 C 
ATOM     16  O   LIG d   1      -4.895  92.578 119.564  0.00  0.00    -0.276 OA
ATOM     17  H   LIG d   1      -3.470  92.461 116.746  0.00  0.00     0.149 HD
ENDBRANCH   6  13
BRANCH   5  18
ATOM     18  N   LIG d   1      -2.200  95.307 117.936  0.00  0.00     0.381 N 
ATOM     19  H   LIG d   1      -2.095  95.693 118.853  0.00  0.00    -0.090 HD
ATOM     20  H   LIG d   1      -3.177  95.141 117.773  0.00  0.00    -0.090 HD
ATOM     21  H   LIG d   1      -1.846  95.945 117.257  0.00  0.00    -0.090 HD
ENDBRANCH   5  18
BRANCH   3  22
ATOM     22  C   LIG d   1       1.959  93.076 118.749  0.00  0.00     0.382 C 
ATOM     23  O   LIG d   1       2.651  92.585 117.824  0.00  0.00    -0.241 OA
ATOM     24  O   LIG d   1       2.526  93.593 119.730  0.00  0.00    -0.241 OA
ENDBRANCH   3  22
TORSDOF 7
ENDMDL
MODEL 8
REMARK VINA RESULT:      -3.9      2.847      5.135
REMARK  7 active torsions:
REMARK  status: ('A' for Active; 'I' for Inactive)
REMARK    1  A    between atoms: C_2  and  C_3 
REMARK    2  A    between atoms: C_3  and  O_6 
REMARK    3  A    between atoms: C_3  and  C_4 
REMARK    4  A    between atoms: C_7  and  O_6 
REMARK    5  A    between atoms: C_9  and  C_10 
REMARK    6  A    between atoms: N_15  and  C_14 
REMARK    7  A    between atoms: N_20  and  C_19 
REMARK       I    between atoms: C_22  and  N_20 
ROOT
ATOM      1  C   LIG d   1      -2.602  93.327 119.790  0.00  0.00     0.161 C 
ATOM      2  C   LIG d   1      -2.764  92.153 119.036  0.00  0.00     0.016 C 
ATOM      3  C   LIG d   1      -3.984  91.784 118.423  0.00  0.00     0.038 C 
ATOM      4  C   LIG d   1      -5.091  92.646 118.397  0.00  0.00     0.028 C 
ATOM      5  C   LIG d   1      -5.131  93.616 119.572  0.00  0.00    -0.047 C 
ATOM      6  C   LIG d   1      -3.766  94.334 119.679  0.00  0.00     0.091 C 
ENDROOT
BRANCH   1   7
ATOM      7  O   LIG d   1      -1.356  93.962 119.442  0.00  0.00    -0.368 OA
BRANCH   7   8
ATOM      8  C   LIG d   1      -0.913  93.792 118.073  0.00  0.00     0.119 C 
BRANCH   8   9
ATOM      9  C   LIG d   1       0.611  93.569 118.104  0.00  0.00     0.028 C 
ATOM     10  C   LIG d   1       1.201  93.741 119.514  0.00  0.00     0.006 C 
ENDBRANCH   8   9
BRANCH   8  11
ATOM     11  C   LIG d   1      -1.120  95.071 117.257  0.00  0.00     0.028 C 
ATOM     12  C   LIG d   1      -1.121  96.338 118.126  0.00  0.00     0.006 C 
ENDBRANCH   8  11
ENDBRANCH   7   8
ENDBRANCH   1   7
BRANCH   6  13
ATOM     13  N   LIG d   1      -3.692  95.239 120.855  0.00  0.00    -0.311 N 
ATOM     14  C   LIG d   1      -3.955  96.544 120.793  0.00  0.00     0.210 C 
ATOM     15  C   LIG d   1      -3.799  97.298 122.117  0.00  0.00     0.109 C 
ATOM     16  O   LIG d   1      -4.334  97.142 119.775  0.00  0.00    -0.276 OA
ATOM     17  H   LIG d   1      -3.422  94.831 121.728  0.00  0.00     0.149 HD
ENDBRANCH   6  13
BRANCH   5  18
ATOM     18  N   LIG d   1      -6.256  94.544 119.346  0.00  0.00     0.381 N 
ATOM     19  H   LIG d   1      -6.137  95.013 118.471  0.00  0.00    -0.090 HD
ATOM     20  H   LIG d   1      -6.260  95.234 120.076  0.00  0.00    -0.090 HD
ATOM     21  H   LIG d   1      -7.117  94.042 119.348  0.00  0.00    -0.090 HD
ENDBRANCH   5  18
BRANCH   3  22
ATOM     22  C   LIG d   1      -4.118  90.523 117.863  0.00  0.00     0.382 C 
ATOM     23  O   LIG d   1      -4.901  90.345 116.899  0.00  0.00    -0.241 OA
ATOM     24  O   LIG d   1      -3.498  89.552 118.337  0.00  0.00    -0.241 OA
ENDBRANCH   3  22
TORSDOF 7
ENDMDL
MODEL 9
REMARK VINA RESULT:      -3.8      2.563      5.895
REMARK  7 active torsions:
REMARK  status: ('A' for Active; 'I' for Inactive)
REMARK    1  A    between atoms: C_2  and  C_3 
REMARK    2  A    between atoms: C_3  and  O_6 
REMARK    3  A    between atoms: C_3  and  C_4 
REMARK    4  A    between atoms: C_7  and  O_6 
REMARK    5  A    between atoms: C_9  and  C_10 
REMARK    6  A    between atoms: N_15  and  C_14 
REMARK    7  A    between atoms: N_20  and  C_19 
REMARK       I    between atoms: C_22  and  N_20 
ROOT
ATOM      1  C   LIG d   1      -3.017  93.365 119.481  0.00  0.00     0.161 C 
ATOM      2  C   LIG d   1      -1.708  93.020 119.855  0.00  0.00     0.016 C 
ATOM      3  C   LIG d   1      -1.083  91.810 119.477  0.00  0.00     0.038 C 
ATOM      4  C   LIG d   1      -1.676  90.923 118.566  0.00  0.00     0.028 C 
ATOM      5  C   LIG d   1      -3.199  90.987 118.562  0.00  0.00    -0.047 C 
ATOM      6  C   LIG d   1      -3.639  92.460 118.396  0.00  0.00     0.091 C 
ENDROOT
BRANCH   1   7
ATOM      7  O   LIG d   1      -3.060  94.745 119.067  0.00  0.00    -0.368 OA
BRANCH   7   8
ATOM      8  C   LIG d   1      -1.809  95.472 119.141  0.00  0.00     0.119 C 
BRANCH   8   9
ATOM      9  C   LIG d   1      -2.035  96.692 120.054  0.00  0.00     0.028 C 
ATOM     10  C   LIG d   1      -1.636  96.414 121.514  0.00  0.00     0.006 C 
ENDBRANCH   8   9
BRANCH   8  11
ATOM     11  C   LIG d   1      -1.421  96.052 117.778  0.00  0.00     0.028 C 
ATOM     12  C   LIG d   1      -0.159  96.928 117.840  0.00  0.00     0.006 C 
ENDBRANCH   8  11
ENDBRANCH   7   8
ENDBRANCH   1   7
BRANCH   6  13
ATOM     13  N   LIG d   1      -5.114  92.623 118.466  0.00  0.00    -0.311 N 
ATOM     14  C   LIG d   1      -5.927  92.388 117.438  0.00  0.00     0.210 C 
ATOM     15  C   LIG d   1      -7.413  92.637 117.718  0.00  0.00     0.109 C 
ATOM     16  O   LIG d   1      -5.563  91.967 116.330  0.00  0.00    -0.276 OA
ATOM     17  H   LIG d   1      -5.498  92.932 119.338  0.00  0.00     0.149 HD
ENDBRANCH   6  13
BRANCH   5  18
ATOM     18  N   LIG d   1      -3.680  90.115 117.474  0.00  0.00     0.381 N 
ATOM     19  H   LIG d   1      -4.246  90.643 116.841  0.00  0.00    -0.090 HD
ATOM     20  H   LIG d   1      -4.245  89.384 117.869  0.00  0.00    -0.090 HD
ATOM     21  H   LIG d   1      -2.906  89.719 116.987  0.00  0.00    -0.090 HD
ENDBRANCH   5  18
BRANCH   3  22
ATOM     22  C   LIG d   1       0.133  91.458 120.043  0.00  0.00     0.382 C 
ATOM     23  O   LIG d   1       0.655  90.350 119.769  0.00  0.00    -0.241 OA
ATOM     24  O   LIG d   1       0.693  92.214 120.858  0.00  0.00    -0.241 OA
ENDBRANCH   3  22
TORSDOF 7
ENDMDL
