MODEL 1
REMARK VINA RESULT:      -5.1      0.000      0.000
REMARK  7 active torsions:
REMARK  status: ('A' for Active; 'I' for Inactive)
REMARK    1  A    between atoms: C_2  and  C_3 
REMARK    2  A    between atoms: C_3  and  O_6 
REMARK    3  A    between atoms: C_3  and  C_4 
REMARK    4  A    between atoms: C_7  and  O_6 
REMARK    5  A    between atoms: C_9  and  C_10 
REMARK    6  A    between atoms: N_15  and  C_14 
REMARK    7  A    between atoms: N_20  and  C_19 
REMARK       I    between atoms: C_22  and  N_20 
ROOT
ATOM      1  C   LIG d   1      -3.171  90.757 118.311  0.00  0.00     0.161 C 
ATOM      2  C   LIG d   1      -4.105  90.425 117.316  0.00  0.00     0.016 C 
ATOM      3  C   LIG d   1      -5.415  90.954 117.271  0.00  0.00     0.038 C 
ATOM      4  C   LIG d   1      -5.834  91.973 118.139  0.00  0.00     0.028 C 
ATOM      5  C   LIG d   1      -5.094  91.974 119.473  0.00  0.00    -0.047 C 
ATOM      6  C   LIG d   1      -3.572  91.951 119.202  0.00  0.00     0.091 C 
ENDROOT
BRANCH   1   7
ATOM      7  O   LIG d   1      -1.880  90.990 117.713  0.00  0.00    -0.368 OA
BRANCH   7   8
ATOM      8  C   LIG d   1      -0.805  90.128 118.160  0.00  0.00     0.119 C 
BRANCH   8   9
ATOM      9  C   LIG d   1       0.385  91.030 118.538  0.00  0.00     0.028 C 
ATOM     10  C   LIG d   1       0.468  92.291 117.661  0.00  0.00     0.006 C 
ENDBRANCH   8   9
BRANCH   8  11
ATOM     11  C   LIG d   1      -0.294  89.238 117.023  0.00  0.00     0.028 C 
ATOM     12  C   LIG d   1       1.066  88.595 117.335  0.00  0.00     0.006 C 
ENDBRANCH   8  11
ENDBRANCH   7   8
ENDBRANCH   1   7
BRANCH   6  13
ATOM     13  N   LIG d   1      -2.775  91.866 120.454  0.00  0.00    -0.311 N 
ATOM     14  C   LIG d   1      -1.870  92.775 120.810  0.00  0.00     0.210 C 
ATOM     15  C   LIG d   1      -1.146  92.486 122.129  0.00  0.00     0.109 C 
ATOM     16  O   LIG d   1      -1.619  93.810 120.174  0.00  0.00    -0.276 OA
ATOM     17  H   LIG d   1      -2.937  91.074 121.045  0.00  0.00     0.149 HD
ENDBRANCH   6  13
BRANCH   5  18
ATOM     18  N   LIG d   1      -5.530  93.167 120.223  0.00  0.00     0.381 N 
ATOM     19  H   LIG d   1      -6.459  93.418 119.950  0.00  0.00    -0.090 HD
ATOM     20  H   LIG d   1      -4.918  93.932 120.001  0.00  0.00    -0.090 HD
ATOM     21  H   LIG d   1      -5.502  92.983 121.202  0.00  0.00    -0.090 HD
ENDBRANCH   5  18
BRANCH   3  22
ATOM     22  C   LIG d   1      -6.336  90.433 116.374  0.00  0.00     0.382 C 
ATOM     23  O   LIG d   1      -6.132  89.314 115.845  0.00  0.00    -0.241 OA
ATOM     24  O   LIG d   1      -7.346  91.088 116.054  0.00  0.00    -0.241 OA
ENDBRANCH   3  22
TORSDOF 7
ENDMDL
MODEL 2
REMARK VINA RESULT:      -4.9      2.172      4.645
REMARK  7 active torsions:
REMARK  status: ('A' for Active; 'I' for Inactive)
REMARK    1  A    between atoms: C_2  and  C_3 
REMARK    2  A    between atoms: C_3  and  O_6 
REMARK    3  A    between atoms: C_3  and  C_4 
REMARK    4  A    between atoms: C_7  and  O_6 
REMARK    5  A    between atoms: C_9  and  C_10 
REMARK    6  A    between atoms: N_15  and  C_14 
REMARK    7  A    between atoms: N_20  and  C_19 
REMARK       I    between atoms: C_22  and  N_20 
ROOT
ATOM      1  C   LIG d   1      -4.875  92.134 119.014  0.00  0.00     0.161 C 
ATOM      2  C   LIG d   1      -5.823  91.586 118.134  0.00  0.00     0.016 C 
ATOM      3  C   LIG d   1      -5.494  90.678 117.102  0.00  0.00     0.038 C 
ATOM      4  C   LIG d   1      -4.207  90.134 116.975  0.00  0.00     0.028 C 
ATOM      5  C   LIG d   1      -3.110  91.041 117.523  0.00  0.00    -0.047 C 
ATOM      6  C   LIG d   1      -3.484  91.467 118.961  0.00  0.00     0.091 C 
ENDROOT
BRANCH   1   7
ATOM      7  O   LIG d   1      -5.389  92.115 120.360  0.00  0.00    -0.368 OA
BRANCH   7   8
ATOM      8  C   LIG d   1      -5.604  93.407 120.979  0.00  0.00     0.119 C 
BRANCH   8   9
ATOM      9  C   LIG d   1      -7.100  93.506 121.336  0.00  0.00     0.028 C 
ATOM     10  C   LIG d   1      -7.938  94.102 120.193  0.00  0.00     0.006 C 
ENDBRANCH   8   9
BRANCH   8  11
ATOM     11  C   LIG d   1      -5.347  94.548 119.990  0.00  0.00     0.028 C 
ATOM     12  C   LIG d   1      -4.262  95.522 120.473  0.00  0.00     0.006 C 
ENDBRANCH   8  11
ENDBRANCH   7   8
ENDBRANCH   1   7
BRANCH   6  13
ATOM     13  N   LIG d   1      -2.505  92.424 119.541  0.00  0.00    -0.311 N 
ATOM     14  C   LIG d   1      -1.476  92.050 120.300  0.00  0.00     0.210 C 
ATOM     15  C   LIG d   1      -0.600  93.197 120.812  0.00  0.00     0.109 C 
ATOM     16  O   LIG d   1      -1.187  90.874 120.570  0.00  0.00    -0.276 OA
ATOM     17  H   LIG d   1      -2.646  93.395 119.346  0.00  0.00     0.149 HD
ENDBRANCH   6  13
BRANCH   5  18
ATOM     18  N   LIG d   1      -1.839  90.295 117.453  0.00  0.00     0.381 N 
ATOM     19  H   LIG d   1      -1.946  89.402 117.891  0.00  0.00    -0.090 HD
ATOM     20  H   LIG d   1      -1.133  90.809 117.951  0.00  0.00    -0.090 HD
ATOM     21  H   LIG d   1      -1.566  90.176 116.502  0.00  0.00    -0.090 HD
ENDBRANCH   5  18
BRANCH   3  22
ATOM     22  C   LIG d   1      -6.450  90.334 116.158  0.00  0.00     0.382 C 
ATOM     23  O   LIG d   1      -6.370  89.237 115.555  0.00  0.00    -0.241 OA
ATOM     24  O   LIG d   1      -7.367  91.127 115.870  0.00  0.00    -0.241 OA
ENDBRANCH   3  22
TORSDOF 7
ENDMDL
MODEL 3
REMARK VINA RESULT:      -4.6      2.231      4.260
REMARK  7 active torsions:
REMARK  status: ('A' for Active; 'I' for Inactive)
REMARK    1  A    between atoms: C_2  and  C_3 
REMARK    2  A    between atoms: C_3  and  O_6 
REMARK    3  A    between atoms: C_3  and  C_4 
REMARK    4  A    between atoms: C_7  and  O_6 
REMARK    5  A    between atoms: C_9  and  C_10 
REMARK    6  A    between atoms: N_15  and  C_14 
REMARK    7  A    between atoms: N_20  and  C_19 
REMARK       I    between atoms: C_22  and  N_20 
ROOT
ATOM      1  C   LIG d   1      -3.844  91.229 120.138  0.00  0.00     0.161 C 
ATOM      2  C   LIG d   1      -3.055  90.498 119.234  0.00  0.00     0.016 C 
ATOM      3  C   LIG d   1      -3.399  90.312 117.876  0.00  0.00     0.038 C 
ATOM      4  C   LIG d   1      -4.487  90.975 117.288  0.00  0.00     0.028 C 
ATOM      5  C   LIG d   1      -5.595  91.316 118.279  0.00  0.00    -0.047 C 
ATOM      6  C   LIG d   1      -4.977  92.052 119.489  0.00  0.00     0.091 C 
ENDROOT
BRANCH   1   7
ATOM      7  O   LIG d   1      -3.004  92.080 120.943  0.00  0.00    -0.368 OA
BRANCH   7   8
ATOM      8  C   LIG d   1      -2.416  93.218 120.267  0.00  0.00     0.119 C 
BRANCH   8   9
ATOM      9  C   LIG d   1      -0.887  93.109 120.422  0.00  0.00     0.028 C 
ATOM     10  C   LIG d   1      -0.188  92.729 119.106  0.00  0.00     0.006 C 
ENDBRANCH   8   9
BRANCH   8  11
ATOM     11  C   LIG d   1      -2.800  94.533 120.951  0.00  0.00     0.028 C 
ATOM     12  C   LIG d   1      -3.457  95.535 119.990  0.00  0.00     0.006 C 
ENDBRANCH   8  11
ENDBRANCH   7   8
ENDBRANCH   1   7
BRANCH   6  13
ATOM     13  N   LIG d   1      -5.980  92.348 120.546  0.00  0.00    -0.311 N 
ATOM     14  C   LIG d   1      -6.691  93.473 120.587  0.00  0.00     0.210 C 
ATOM     15  C   LIG d   1      -7.655  93.586 121.772  0.00  0.00     0.109 C 
ATOM     16  O   LIG d   1      -6.638  94.375 119.737  0.00  0.00    -0.276 OA
ATOM     17  H   LIG d   1      -6.109  91.656 121.258  0.00  0.00     0.149 HD
ENDBRANCH   6  13
BRANCH   5  18
ATOM     18  N   LIG d   1      -6.600  92.123 117.563  0.00  0.00     0.381 N 
ATOM     19  H   LIG d   1      -7.254  92.507 118.215  0.00  0.00    -0.090 HD
ATOM     20  H   LIG d   1      -7.102  91.529 116.927  0.00  0.00    -0.090 HD
ATOM     21  H   LIG d   1      -6.153  92.857 117.060  0.00  0.00    -0.090 HD
ENDBRANCH   5  18
BRANCH   3  22
ATOM     22  C   LIG d   1      -2.673  89.421 117.099  0.00  0.00     0.382 C 
ATOM     23  O   LIG d   1      -1.423  89.385 117.191  0.00  0.00    -0.241 OA
ATOM     24  O   LIG d   1      -3.250  88.686 116.276  0.00  0.00    -0.241 OA
ENDBRANCH   3  22
TORSDOF 7
ENDMDL
MODEL 4
REMARK VINA RESULT:      -4.5      2.901      4.377
REMARK  7 active torsions:
REMARK  status: ('A' for Active; 'I' for Inactive)
REMARK    1  A    between atoms: C_2  and  C_3 
REMARK    2  A    between atoms: C_3  and  O_6 
REMARK    3  A    between atoms: C_3  and  C_4 
REMARK    4  A    between atoms: C_7  and  O_6 
REMARK    5  A    between atoms: C_9  and  C_10 
REMARK    6  A    between atoms: N_15  and  C_14 
REMARK    7  A    between atoms: N_20  and  C_19 
REMARK       I    between atoms: C_22  and  N_20 
ROOT
ATOM      1  C   LIG d   1      -5.436  92.732 120.338  0.00  0.00     0.161 C 
ATOM      2  C   LIG d   1      -6.690  93.288 120.035  0.00  0.00     0.016 C 
ATOM      3  C   LIG d   1      -6.890  94.664 119.781  0.00  0.00     0.038 C 
ATOM      4  C   LIG d   1      -5.817  95.560 119.663  0.00  0.00     0.028 C 
ATOM      5  C   LIG d   1      -4.586  95.139 120.458  0.00  0.00    -0.047 C 
ATOM      6  C   LIG d   1      -4.237  93.675 120.105  0.00  0.00     0.091 C 
ENDROOT
BRANCH   1   7
ATOM      7  O   LIG d   1      -5.257  91.503 119.607  0.00  0.00    -0.368 OA
BRANCH   7   8
ATOM      8  C   LIG d   1      -4.763  91.634 118.251  0.00  0.00     0.119 C 
BRANCH   8   9
ATOM      9  C   LIG d   1      -5.893  91.190 117.302  0.00  0.00     0.028 C 
ATOM     10  C   LIG d   1      -5.366  90.763 115.922  0.00  0.00     0.006 C 
ENDBRANCH   8   9
BRANCH   8  11
ATOM     11  C   LIG d   1      -3.605  90.669 117.984  0.00  0.00     0.028 C 
ATOM     12  C   LIG d   1      -3.184  89.882 119.235  0.00  0.00     0.006 C 
ENDBRANCH   8  11
ENDBRANCH   7   8
ENDBRANCH   1   7
BRANCH   6  13
ATOM     13  N   LIG d   1      -3.095  93.156 120.902  0.00  0.00    -0.311 N 
ATOM     14  C   LIG d   1      -1.838  93.146 120.461  0.00  0.00     0.210 C 
ATOM     15  C   LIG d   1      -0.817  92.549 121.434  0.00  0.00     0.109 C 
ATOM     16  O   LIG d   1      -1.468  93.605 119.369  0.00  0.00    -0.276 OA
ATOM     17  H   LIG d   1      -3.301  92.794 121.812  0.00  0.00     0.149 HD
ENDBRANCH   6  13
BRANCH   5  18
ATOM     18  N   LIG d   1      -3.502  96.086 120.136  0.00  0.00     0.381 N 
ATOM     19  H   LIG d   1      -2.629  95.726 120.466  0.00  0.00    -0.090 HD
ATOM     20  H   LIG d   1      -3.682  96.957 120.603  0.00  0.00    -0.090 HD
ATOM     21  H   LIG d   1      -3.458  96.231 119.151  0.00  0.00    -0.090 HD
ENDBRANCH   5  18
BRANCH   3  22
ATOM     22  C   LIG d   1      -8.180  95.164 119.681  0.00  0.00     0.382 C 
ATOM     23  O   LIG d   1      -9.027  94.575 118.967  0.00  0.00    -0.241 OA
ATOM     24  O   LIG d   1      -8.494  96.221 120.261  0.00  0.00    -0.241 OA
ENDBRANCH   3  22
TORSDOF 7
ENDMDL
MODEL 5
REMARK VINA RESULT:      -4.4      2.114      5.518
REMARK  7 active torsions:
REMARK  status: ('A' for Active; 'I' for Inactive)
REMARK    1  A    between atoms: C_2  and  C_3 
REMARK    2  A    between atoms: C_3  and  O_6 
REMARK    3  A    between atoms: C_3  and  C_4 
REMARK    4  A    between atoms: C_7  and  O_6 
REMARK    5  A    between atoms: C_9  and  C_10 
REMARK    6  A    between atoms: N_15  and  C_14 
REMARK    7  A    between atoms: N_20  and  C_19 
REMARK       I    between atoms: C_22  and  N_20 
ROOT
ATOM      1  C   LIG d   1      -0.366  91.966 117.775  0.00  0.00     0.161 C 
ATOM      2  C   LIG d   1       0.641  92.511 118.590  0.00  0.00     0.016 C 
ATOM      3  C   LIG d   1       0.424  92.922 119.925  0.00  0.00     0.038 C 
ATOM      4  C   LIG d   1      -0.786  92.674 120.590  0.00  0.00     0.028 C 
ATOM      5  C   LIG d   1      -1.985  92.586 119.652  0.00  0.00    -0.047 C 
ATOM      6  C   LIG d   1      -1.663  91.585 118.518  0.00  0.00     0.091 C 
ENDROOT
BRANCH   1   7
ATOM      7  O   LIG d   1       0.151  90.829 117.055  0.00  0.00    -0.368 OA
BRANCH   7   8
ATOM      8  C   LIG d   1       1.312  90.183 117.631  0.00  0.00     0.119 C 
BRANCH   8   9
ATOM      9  C   LIG d   1       2.158  89.628 116.469  0.00  0.00     0.028 C 
ATOM     10  C   LIG d   1       1.515  88.395 115.811  0.00  0.00     0.006 C 
ENDBRANCH   8   9
BRANCH   8  11
ATOM     11  C   LIG d   1       0.914  88.960 118.463  0.00  0.00     0.028 C 
ATOM     12  C   LIG d   1       1.233  89.126 119.957  0.00  0.00     0.006 C 
ENDBRANCH   8  11
ENDBRANCH   7   8
ENDBRANCH   1   7
BRANCH   6  13
ATOM     13  N   LIG d   1      -2.751  91.502 117.509  0.00  0.00    -0.311 N 
ATOM     14  C   LIG d   1      -3.706  90.574 117.535  0.00  0.00     0.210 C 
ATOM     15  C   LIG d   1      -4.720  90.657 116.389  0.00  0.00     0.109 C 
ATOM     16  O   LIG d   1      -3.829  89.710 118.417  0.00  0.00    -0.276 OA
ATOM     17  H   LIG d   1      -2.746  92.184 116.776  0.00  0.00     0.149 HD
ENDBRANCH   6  13
BRANCH   5  18
ATOM     18  N   LIG d   1      -3.154  92.189 120.459  0.00  0.00     0.381 N 
ATOM     19  H   LIG d   1      -3.933  92.776 120.239  0.00  0.00    -0.090 HD
ATOM     20  H   LIG d   1      -2.934  92.309 121.432  0.00  0.00    -0.090 HD
ATOM     21  H   LIG d   1      -3.386  91.237 120.279  0.00  0.00    -0.090 HD
ENDBRANCH   5  18
BRANCH   3  22
ATOM     22  C   LIG d   1       1.413  93.625 120.597  0.00  0.00     0.382 C 
ATOM     23  O   LIG d   1       1.134  94.705 121.171  0.00  0.00    -0.241 OA
ATOM     24  O   LIG d   1       2.589  93.215 120.598  0.00  0.00    -0.241 OA
ENDBRANCH   3  22
TORSDOF 7
ENDMDL
MODEL 6
REMARK VINA RESULT:      -4.4      2.620      5.685
REMARK  7 active torsions:
REMARK  status: ('A' for Active; 'I' for Inactive)
REMARK    1  A    between atoms: C_2  and  C_3 
REMARK    2  A    between atoms: C_3  and  O_6 
REMARK    3  A    between atoms: C_3  and  C_4 
REMARK    4  A    between atoms: C_7  and  O_6 
REMARK    5  A    between atoms: C_9  and  C_10 
REMARK    6  A    between atoms: N_15  and  C_14 
REMARK    7  A    between atoms: N_20  and  C_19 
REMARK       I    between atoms: C_22  and  N_20 
ROOT
ATOM      1  C   LIG d   1      -0.698  92.653 118.328  0.00  0.00     0.161 C 
ATOM      2  C   LIG d   1       0.393  92.240 117.546  0.00  0.00     0.016 C 
ATOM      3  C   LIG d   1       1.689  92.025 118.070  0.00  0.00     0.038 C 
ATOM      4  C   LIG d   1       1.946  92.061 119.449  0.00  0.00     0.028 C 
ATOM      5  C   LIG d   1       0.991  92.966 120.220  0.00  0.00    -0.047 C 
ATOM      6  C   LIG d   1      -0.463  92.590 119.852  0.00  0.00     0.091 C 
ENDROOT
BRANCH   1   7
ATOM      7  O   LIG d   1      -1.870  91.893 117.970  0.00  0.00    -0.368 OA
BRANCH   7   8
ATOM      8  C   LIG d   1      -1.961  90.560 118.531  0.00  0.00     0.119 C 
BRANCH   8   9
ATOM      9  C   LIG d   1      -1.812  89.559 117.370  0.00  0.00     0.028 C 
ATOM     10  C   LIG d   1      -3.142  89.301 116.642  0.00  0.00     0.006 C 
ENDBRANCH   8   9
BRANCH   8  11
ATOM     11  C   LIG d   1      -3.351  90.296 119.118  0.00  0.00     0.028 C 
ATOM     12  C   LIG d   1      -4.223  91.560 119.175  0.00  0.00     0.006 C 
ENDBRANCH   8  11
ENDBRANCH   7   8
ENDBRANCH   1   7
BRANCH   6  13
ATOM     13  N   LIG d   1      -1.460  93.483 120.498  0.00  0.00    -0.311 N 
ATOM     14  C   LIG d   1      -2.080  93.185 121.638  0.00  0.00     0.210 C 
ATOM     15  C   LIG d   1      -3.086  94.235 122.121  0.00  0.00     0.109 C 
ATOM     16  O   LIG d   1      -1.869  92.166 122.313  0.00  0.00    -0.276 OA
ATOM     17  H   LIG d   1      -1.668  94.345 120.034  0.00  0.00     0.149 HD
ENDBRANCH   6  13
BRANCH   5  18
ATOM     18  N   LIG d   1       1.284  92.803 121.656  0.00  0.00     0.381 N 
ATOM     19  H   LIG d   1       2.274  92.803 121.802  0.00  0.00    -0.090 HD
ATOM     20  H   LIG d   1       0.919  91.919 121.964  0.00  0.00    -0.090 HD
ATOM     21  H   LIG d   1       0.865  93.543 122.176  0.00  0.00    -0.090 HD
ENDBRANCH   5  18
BRANCH   3  22
ATOM     22  C   LIG d   1       2.752  91.808 117.207  0.00  0.00     0.382 C 
ATOM     23  O   LIG d   1       2.864  90.708 116.615  0.00  0.00    -0.241 OA
ATOM     24  O   LIG d   1       3.625  92.682 117.048  0.00  0.00    -0.241 OA
ENDBRANCH   3  22
TORSDOF 7
ENDMDL
MODEL 7
REMARK VINA RESULT:      -4.4      2.559      6.356
REMARK  7 active torsions:
REMARK  status: ('A' for Active; 'I' for Inactive)
REMARK    1  A    between atoms: C_2  and  C_3 
REMARK    2  A    between atoms: C_3  and  O_6 
REMARK    3  A    between atoms: C_3  and  C_4 
REMARK    4  A    between atoms: C_7  and  O_6 
REMARK    5  A    between atoms: C_9  and  C_10 
REMARK    6  A    between atoms: N_15  and  C_14 
REMARK    7  A    between atoms: N_20  and  C_19 
REMARK       I    between atoms: C_22  and  N_20 
ROOT
ATOM      1  C   LIG d   1      -4.441  91.510 119.199  0.00  0.00     0.161 C 
ATOM      2  C   LIG d   1      -3.221  91.764 119.847  0.00  0.00     0.016 C 
ATOM      3  C   LIG d   1      -1.972  91.320 119.355  0.00  0.00     0.038 C 
ATOM      4  C   LIG d   1      -1.843  90.718 118.094  0.00  0.00     0.028 C 
ATOM      5  C   LIG d   1      -3.105  89.992 117.639  0.00  0.00    -0.047 C 
ATOM      6  C   LIG d   1      -4.310  90.951 117.767  0.00  0.00     0.091 C 
ENDROOT
BRANCH   1   7
ATOM      7  O   LIG d   1      -5.252  92.702 119.199  0.00  0.00    -0.368 OA
BRANCH   7   8
ATOM      8  C   LIG d   1      -5.068  93.598 120.324  0.00  0.00     0.119 C 
BRANCH   8   9
ATOM      9  C   LIG d   1      -6.333  93.506 121.199  0.00  0.00     0.028 C 
ATOM     10  C   LIG d   1      -7.583  94.044 120.483  0.00  0.00     0.006 C 
ENDBRANCH   8   9
BRANCH   8  11
ATOM     11  C   LIG d   1      -4.996  95.058 119.867  0.00  0.00     0.028 C 
ATOM     12  C   LIG d   1      -4.033  95.901 120.717  0.00  0.00     0.006 C 
ENDBRANCH   8  11
ENDBRANCH   7   8
ENDBRANCH   1   7
BRANCH   6  13
ATOM     13  N   LIG d   1      -5.597  90.294 117.421  0.00  0.00    -0.311 N 
ATOM     14  C   LIG d   1      -6.286  90.567 116.315  0.00  0.00     0.210 C 
ATOM     15  C   LIG d   1      -7.598  89.791 116.161  0.00  0.00     0.109 C 
ATOM     16  O   LIG d   1      -5.920  91.356 115.431  0.00  0.00    -0.276 OA
ATOM     17  H   LIG d   1      -5.952  89.617 118.069  0.00  0.00     0.149 HD
ENDBRANCH   6  13
BRANCH   5  18
ATOM     18  N   LIG d   1      -2.878  89.530 116.256  0.00  0.00     0.381 N 
ATOM     19  H   LIG d   1      -3.737  89.559 115.744  0.00  0.00    -0.090 HD
ATOM     20  H   LIG d   1      -2.557  88.578 116.280  0.00  0.00    -0.090 HD
ATOM     21  H   LIG d   1      -2.199  90.107 115.811  0.00  0.00    -0.090 HD
ENDBRANCH   5  18
BRANCH   3  22
ATOM     22  C   LIG d   1      -0.839  91.442 120.145  0.00  0.00     0.382 C 
ATOM     23  O   LIG d   1       0.300  91.398 119.620  0.00  0.00    -0.241 OA
ATOM     24  O   LIG d   1      -0.940  91.552 121.381  0.00  0.00    -0.241 OA
ENDBRANCH   3  22
TORSDOF 7
ENDMDL
MODEL 8
REMARK VINA RESULT:      -4.2      2.651      6.377
REMARK  7 active torsions:
REMARK  status: ('A' for Active; 'I' for Inactive)
REMARK    1  A    between atoms: C_2  and  C_3 
REMARK    2  A    between atoms: C_3  and  O_6 
REMARK    3  A    between atoms: C_3  and  C_4 
REMARK    4  A    between atoms: C_7  and  O_6 
REMARK    5  A    between atoms: C_9  and  C_10 
REMARK    6  A    between atoms: N_15  and  C_14 
REMARK    7  A    between atoms: N_20  and  C_19 
REMARK       I    between atoms: C_22  and  N_20 
ROOT
ATOM      1  C   LIG d   1      -2.224  91.622 119.574  0.00  0.00     0.161 C 
ATOM      2  C   LIG d   1      -1.279  91.196 120.522  0.00  0.00     0.016 C 
ATOM      3  C   LIG d   1      -0.122  90.455 120.188  0.00  0.00     0.038 C 
ATOM      4  C   LIG d   1       0.248  90.218 118.856  0.00  0.00     0.028 C 
ATOM      5  C   LIG d   1      -0.935  90.192 117.894  0.00  0.00    -0.047 C 
ATOM      6  C   LIG d   1      -1.780  91.469 118.104  0.00  0.00     0.091 C 
ENDROOT
BRANCH   1   7
ATOM      7  O   LIG d   1      -2.605  92.986 119.842  0.00  0.00    -0.368 OA
BRANCH   7   8
ATOM      8  C   LIG d   1      -3.683  93.172 120.793  0.00  0.00     0.119 C 
BRANCH   8   9
ATOM      9  C   LIG d   1      -4.841  92.251 120.365  0.00  0.00     0.028 C 
ATOM     10  C   LIG d   1      -5.814  92.943 119.395  0.00  0.00     0.006 C 
ENDBRANCH   8   9
BRANCH   8  11
ATOM     11  C   LIG d   1      -4.248  94.594 120.724  0.00  0.00     0.028 C 
ATOM     12  C   LIG d   1      -4.494  95.205 122.112  0.00  0.00     0.006 C 
ENDBRANCH   8  11
ENDBRANCH   7   8
ENDBRANCH   1   7
BRANCH   6  13
ATOM     13  N   LIG d   1      -3.004  91.484 117.261  0.00  0.00    -0.311 N 
ATOM     14  C   LIG d   1      -3.922  90.518 117.283  0.00  0.00     0.210 C 
ATOM     15  C   LIG d   1      -5.096  90.720 116.320  0.00  0.00     0.109 C 
ATOM     16  O   LIG d   1      -3.891  89.531 118.033  0.00  0.00    -0.276 OA
ATOM     17  H   LIG d   1      -3.125  92.264 116.645  0.00  0.00     0.149 HD
ENDBRANCH   6  13
BRANCH   5  18
ATOM     18  N   LIG d   1      -0.395  90.074 116.526  0.00  0.00     0.381 N 
ATOM     19  H   LIG d   1       0.317  89.372 116.503  0.00  0.00    -0.090 HD
ATOM     20  H   LIG d   1       0.019  90.951 116.264  0.00  0.00    -0.090 HD
ATOM     21  H   LIG d   1      -1.125  89.839 115.891  0.00  0.00    -0.090 HD
ENDBRANCH   5  18
BRANCH   3  22
ATOM     22  C   LIG d   1       0.657  89.908 121.196  0.00  0.00     0.382 C 
ATOM     23  O   LIG d   1       0.602  88.677 121.433  0.00  0.00    -0.241 OA
ATOM     24  O   LIG d   1       1.382  90.636 121.900  0.00  0.00    -0.241 OA
ENDBRANCH   3  22
TORSDOF 7
ENDMDL
MODEL 9
REMARK VINA RESULT:      -4.2      2.995      4.956
REMARK  7 active torsions:
REMARK  status: ('A' for Active; 'I' for Inactive)
REMARK    1  A    between atoms: C_2  and  C_3 
REMARK    2  A    between atoms: C_3  and  O_6 
REMARK    3  A    between atoms: C_3  and  C_4 
REMARK    4  A    between atoms: C_7  and  O_6 
REMARK    5  A    between atoms: C_9  and  C_10 
REMARK    6  A    between atoms: N_15  and  C_14 
REMARK    7  A    between atoms: N_20  and  C_19 
REMARK       I    between atoms: C_22  and  N_20 
ROOT
ATOM      1  C   LIG d   1       0.612  89.472 117.275  0.00  0.00     0.161 C 
ATOM      2  C   LIG d   1      -0.785  89.337 117.217  0.00  0.00     0.016 C 
ATOM      3  C   LIG d   1      -1.682  90.294 117.746  0.00  0.00     0.038 C 
ATOM      4  C   LIG d   1      -1.241  91.532 118.236  0.00  0.00     0.028 C 
ATOM      5  C   LIG d   1       0.185  91.496 118.774  0.00  0.00    -0.047 C 
ATOM      6  C   LIG d   1       1.109  90.867 117.706  0.00  0.00     0.091 C 
ENDROOT
BRANCH   1   7
ATOM      7  O   LIG d   1       1.191  89.104 116.007  0.00  0.00    -0.368 OA
BRANCH   7   8
ATOM      8  C   LIG d   1       1.801  87.791 115.942  0.00  0.00     0.119 C 
BRANCH   8   9
ATOM      9  C   LIG d   1       0.723  86.803 115.454  0.00  0.00     0.028 C 
ATOM     10  C   LIG d   1       0.781  85.458 116.196  0.00  0.00     0.006 C 
ENDBRANCH   8   9
BRANCH   8  11
ATOM     11  C   LIG d   1       2.205  87.295 117.334  0.00  0.00     0.028 C 
ATOM     12  C   LIG d   1       3.714  87.421 117.596  0.00  0.00     0.006 C 
ENDBRANCH   8  11
ENDBRANCH   7   8
ENDBRANCH   1   7
BRANCH   6  13
ATOM     13  N   LIG d   1       2.508  90.718 118.184  0.00  0.00    -0.311 N 
ATOM     14  C   LIG d   1       3.516  91.474 117.752  0.00  0.00     0.210 C 
ATOM     15  C   LIG d   1       4.882  91.141 118.359  0.00  0.00     0.109 C 
ATOM     16  O   LIG d   1       3.402  92.411 116.947  0.00  0.00    -0.276 OA
ATOM     17  H   LIG d   1       2.685  90.002 118.862  0.00  0.00     0.149 HD
ENDBRANCH   6  13
BRANCH   5  18
ATOM     18  N   LIG d   1       0.564  92.879 119.124  0.00  0.00     0.381 N 
ATOM     19  H   LIG d   1       1.513  93.047 118.859  0.00  0.00    -0.090 HD
ATOM     20  H   LIG d   1       0.490  92.994 120.120  0.00  0.00    -0.090 HD
ATOM     21  H   LIG d   1      -0.038  93.524 118.662  0.00  0.00    -0.090 HD
ENDBRANCH   5  18
BRANCH   3  22
ATOM     22  C   LIG d   1      -3.035  89.999 117.823  0.00  0.00     0.382 C 
ATOM     23  O   LIG d   1      -3.559  89.233 116.978  0.00  0.00    -0.241 OA
ATOM     24  O   LIG d   1      -3.747  90.524 118.700  0.00  0.00    -0.241 OA
ENDBRANCH   3  22
TORSDOF 7
ENDMDL
