MODEL 1
REMARK VINA RESULT:      -5.4      0.000      0.000
REMARK  7 active torsions:
REMARK  status: ('A' for Active; 'I' for Inactive)
REMARK    1  A    between atoms: C_2  and  C_3 
REMARK    2  A    between atoms: C_3  and  O_6 
REMARK    3  A    between atoms: C_3  and  C_4 
REMARK    4  A    between atoms: C_7  and  O_6 
REMARK    5  A    between atoms: C_9  and  C_10 
REMARK    6  A    between atoms: N_15  and  C_14 
REMARK    7  A    between atoms: N_20  and  C_19 
REMARK       I    between atoms: C_22  and  N_20 
ROOT
ATOM      1  C   LIG d   1      -6.586  93.634 117.539  0.00  0.00     0.161 C 
ATOM      2  C   LIG d   1      -7.045  92.408 117.029  0.00  0.00     0.016 C 
ATOM      3  C   LIG d   1      -6.191  91.322 116.728  0.00  0.00     0.038 C 
ATOM      4  C   LIG d   1      -4.828  91.337 117.061  0.00  0.00     0.028 C 
ATOM      5  C   LIG d   1      -4.232  92.739 117.111  0.00  0.00    -0.047 C 
ATOM      6  C   LIG d   1      -5.118  93.629 118.012  0.00  0.00     0.091 C 
ENDROOT
BRANCH   1   7
ATOM      7  O   LIG d   1      -7.454  94.077 118.601  0.00  0.00    -0.368 OA
BRANCH   7   8
ATOM      8  C   LIG d   1      -8.573  94.907 118.206  0.00  0.00     0.119 C 
BRANCH   8   9
ATOM      9  C   LIG d   1      -8.064  96.359 118.118  0.00  0.00     0.028 C 
ATOM     10  C   LIG d   1      -7.741  96.952 119.500  0.00  0.00     0.006 C 
ENDBRANCH   8   9
BRANCH   8  11
ATOM     11  C   LIG d   1      -9.662  94.924 119.283  0.00  0.00     0.028 C 
ATOM     12  C   LIG d   1      -9.779  93.587 120.033  0.00  0.00     0.006 C 
ENDBRANCH   8  11
ENDBRANCH   7   8
ENDBRANCH   1   7
BRANCH   6  13
ATOM     13  N   LIG d   1      -4.652  95.040 118.049  0.00  0.00    -0.311 N 
ATOM     14  C   LIG d   1      -4.296  95.665 119.170  0.00  0.00     0.210 C 
ATOM     15  C   LIG d   1      -3.866  97.124 118.988  0.00  0.00     0.109 C 
ATOM     16  O   LIG d   1      -4.265  95.141 120.293  0.00  0.00    -0.276 OA
ATOM     17  H   LIG d   1      -4.617  95.531 117.178  0.00  0.00     0.149 HD
ENDBRANCH   6  13
BRANCH   5  18
ATOM     18  N   LIG d   1      -2.846  92.617 117.603  0.00  0.00     0.381 N 
ATOM     19  H   LIG d   1      -2.797  91.902 118.302  0.00  0.00    -0.090 HD
ATOM     20  H   LIG d   1      -2.572  93.487 118.023  0.00  0.00    -0.090 HD
ATOM     21  H   LIG d   1      -2.235  92.396 116.848  0.00  0.00    -0.090 HD
ENDBRANCH   5  18
BRANCH   3  22
ATOM     22  C   LIG d   1      -6.692  90.221 116.050  0.00  0.00     0.382 C 
ATOM     23  O   LIG d   1      -5.906  89.363 115.581  0.00  0.00    -0.241 OA
ATOM     24  O   LIG d   1      -7.917  90.098 115.864  0.00  0.00    -0.241 OA
ENDBRANCH   3  22
TORSDOF 7
ENDMDL
MODEL 2
REMARK VINA RESULT:      -5.1      2.898      5.470
REMARK  7 active torsions:
REMARK  status: ('A' for Active; 'I' for Inactive)
REMARK    1  A    between atoms: C_2  and  C_3 
REMARK    2  A    between atoms: C_3  and  O_6 
REMARK    3  A    between atoms: C_3  and  C_4 
REMARK    4  A    between atoms: C_7  and  O_6 
REMARK    5  A    between atoms: C_9  and  C_10 
REMARK    6  A    between atoms: N_15  and  C_14 
REMARK    7  A    between atoms: N_20  and  C_19 
REMARK       I    between atoms: C_22  and  N_20 
ROOT
ATOM      1  C   LIG d   1      -4.017  92.378 117.711  0.00  0.00     0.161 C 
ATOM      2  C   LIG d   1      -5.132  93.222 117.566  0.00  0.00     0.016 C 
ATOM      3  C   LIG d   1      -6.259  92.893 116.778  0.00  0.00     0.038 C 
ATOM      4  C   LIG d   1      -6.415  91.625 116.199  0.00  0.00     0.028 C 
ATOM      5  C   LIG d   1      -5.091  90.928 115.902  0.00  0.00    -0.047 C 
ATOM      6  C   LIG d   1      -4.218  90.944 117.177  0.00  0.00     0.091 C 
ENDROOT
BRANCH   1   7
ATOM      7  O   LIG d   1      -3.606  92.346 119.092  0.00  0.00    -0.368 OA
BRANCH   7   8
ATOM      8  C   LIG d   1      -2.483  93.191 119.443  0.00  0.00     0.119 C 
BRANCH   8   9
ATOM      9  C   LIG d   1      -1.269  92.272 119.682  0.00  0.00     0.028 C 
ATOM     10  C   LIG d   1      -1.601  91.090 120.607  0.00  0.00     0.006 C 
ENDBRANCH   8   9
BRANCH   8  11
ATOM     11  C   LIG d   1      -2.719  93.907 120.776  0.00  0.00     0.028 C 
ATOM     12  C   LIG d   1      -4.209  94.037 121.127  0.00  0.00     0.006 C 
ENDBRANCH   8  11
ENDBRANCH   7   8
ENDBRANCH   1   7
BRANCH   6  13
ATOM     13  N   LIG d   1      -2.872  90.357 116.950  0.00  0.00    -0.311 N 
ATOM     14  C   LIG d   1      -2.427  89.275 117.587  0.00  0.00     0.210 C 
ATOM     15  C   LIG d   1      -1.003  88.847 117.219  0.00  0.00     0.109 C 
ATOM     16  O   LIG d   1      -3.089  88.610 118.398  0.00  0.00    -0.276 OA
ATOM     17  H   LIG d   1      -2.280  90.815 116.285  0.00  0.00     0.149 HD
ENDBRANCH   6  13
BRANCH   5  18
ATOM     18  N   LIG d   1      -5.401  89.565 115.431  0.00  0.00     0.381 N 
ATOM     19  H   LIG d   1      -4.948  88.893 116.017  0.00  0.00    -0.090 HD
ATOM     20  H   LIG d   1      -5.050  89.456 114.496  0.00  0.00    -0.090 HD
ATOM     21  H   LIG d   1      -6.386  89.416 115.443  0.00  0.00    -0.090 HD
ENDBRANCH   5  18
BRANCH   3  22
ATOM     22  C   LIG d   1      -7.227  93.854 116.530  0.00  0.00     0.382 C 
ATOM     23  O   LIG d   1      -8.008  93.720 115.557  0.00  0.00    -0.241 OA
ATOM     24  O   LIG d   1      -7.301  94.875 117.240  0.00  0.00    -0.241 OA
ENDBRANCH   3  22
TORSDOF 7
ENDMDL
MODEL 3
REMARK VINA RESULT:      -4.9      1.171      2.051
REMARK  7 active torsions:
REMARK  status: ('A' for Active; 'I' for Inactive)
REMARK    1  A    between atoms: C_2  and  C_3 
REMARK    2  A    between atoms: C_3  and  O_6 
REMARK    3  A    between atoms: C_3  and  C_4 
REMARK    4  A    between atoms: C_7  and  O_6 
REMARK    5  A    between atoms: C_9  and  C_10 
REMARK    6  A    between atoms: N_15  and  C_14 
REMARK    7  A    between atoms: N_20  and  C_19 
REMARK       I    between atoms: C_22  and  N_20 
ROOT
ATOM      1  C   LIG d   1      -6.607  93.857 117.686  0.00  0.00     0.161 C 
ATOM      2  C   LIG d   1      -7.027  92.609 117.194  0.00  0.00     0.016 C 
ATOM      3  C   LIG d   1      -6.143  91.536 116.940  0.00  0.00     0.038 C 
ATOM      4  C   LIG d   1      -4.790  91.587 117.307  0.00  0.00     0.028 C 
ATOM      5  C   LIG d   1      -4.224  93.003 117.338  0.00  0.00    -0.047 C 
ATOM      6  C   LIG d   1      -5.151  93.894 118.195  0.00  0.00     0.091 C 
ENDROOT
BRANCH   1   7
ATOM      7  O   LIG d   1      -7.511  94.305 118.715  0.00  0.00    -0.368 OA
BRANCH   7   8
ATOM      8  C   LIG d   1      -7.104  94.039 120.080  0.00  0.00     0.119 C 
BRANCH   8   9
ATOM      9  C   LIG d   1      -8.092  93.011 120.665  0.00  0.00     0.028 C 
ATOM     10  C   LIG d   1      -7.687  92.544 122.074  0.00  0.00     0.006 C 
ENDBRANCH   8   9
BRANCH   8  11
ATOM     11  C   LIG d   1      -7.248  95.285 120.958  0.00  0.00     0.028 C 
ATOM     12  C   LIG d   1      -7.537  96.557 120.144  0.00  0.00     0.006 C 
ENDBRANCH   8  11
ENDBRANCH   7   8
ENDBRANCH   1   7
BRANCH   6  13
ATOM     13  N   LIG d   1      -4.717  95.316 118.210  0.00  0.00    -0.311 N 
ATOM     14  C   LIG d   1      -3.980  95.847 119.184  0.00  0.00     0.210 C 
ATOM     15  C   LIG d   1      -3.659  97.335 119.014  0.00  0.00     0.109 C 
ATOM     16  O   LIG d   1      -3.535  95.219 120.157  0.00  0.00    -0.276 OA
ATOM     17  H   LIG d   1      -5.007  95.889 117.443  0.00  0.00     0.149 HD
ENDBRANCH   6  13
BRANCH   5  18
ATOM     18  N   LIG d   1      -2.849  92.922 117.867  0.00  0.00     0.381 N 
ATOM     19  H   LIG d   1      -2.200  93.231 117.171  0.00  0.00    -0.090 HD
ATOM     20  H   LIG d   1      -2.642  91.964 118.089  0.00  0.00    -0.090 HD
ATOM     21  H   LIG d   1      -2.765  93.485 118.684  0.00  0.00    -0.090 HD
ENDBRANCH   5  18
BRANCH   3  22
ATOM     22  C   LIG d   1      -6.603  90.408 116.277  0.00  0.00     0.382 C 
ATOM     23  O   LIG d   1      -7.831  90.264 116.064  0.00  0.00    -0.241 OA
ATOM     24  O   LIG d   1      -5.811  89.513 115.928  0.00  0.00    -0.241 OA
ENDBRANCH   3  22
TORSDOF 7
ENDMDL
MODEL 4
REMARK VINA RESULT:      -4.8      2.417      4.346
REMARK  7 active torsions:
REMARK  status: ('A' for Active; 'I' for Inactive)
REMARK    1  A    between atoms: C_2  and  C_3 
REMARK    2  A    between atoms: C_3  and  O_6 
REMARK    3  A    between atoms: C_3  and  C_4 
REMARK    4  A    between atoms: C_7  and  O_6 
REMARK    5  A    between atoms: C_9  and  C_10 
REMARK    6  A    between atoms: N_15  and  C_14 
REMARK    7  A    between atoms: N_20  and  C_19 
REMARK       I    between atoms: C_22  and  N_20 
ROOT
ATOM      1  C   LIG d   1      -4.419  92.826 118.193  0.00  0.00     0.161 C 
ATOM      2  C   LIG d   1      -3.420  91.843 118.103  0.00  0.00     0.016 C 
ATOM      3  C   LIG d   1      -3.585  90.628 117.399  0.00  0.00     0.038 C 
ATOM      4  C   LIG d   1      -4.715  90.378 116.606  0.00  0.00     0.028 C 
ATOM      5  C   LIG d   1      -5.960  91.123 117.074  0.00  0.00    -0.047 C 
ATOM      6  C   LIG d   1      -5.616  92.621 117.242  0.00  0.00     0.091 C 
ENDROOT
BRANCH   1   7
ATOM      7  O   LIG d   1      -3.839  94.131 117.995  0.00  0.00    -0.368 OA
BRANCH   7   8
ATOM      8  C   LIG d   1      -3.548  94.888 119.195  0.00  0.00     0.119 C 
BRANCH   8   9
ATOM      9  C   LIG d   1      -4.444  94.335 120.320  0.00  0.00     0.028 C 
ATOM     10  C   LIG d   1      -3.683  94.163 121.645  0.00  0.00     0.006 C 
ENDBRANCH   8   9
BRANCH   8  11
ATOM     11  C   LIG d   1      -3.954  96.357 119.039  0.00  0.00     0.028 C 
ATOM     12  C   LIG d   1      -5.478  96.557 119.030  0.00  0.00     0.006 C 
ENDBRANCH   8  11
ENDBRANCH   7   8
ENDBRANCH   1   7
BRANCH   6  13
ATOM     13  N   LIG d   1      -6.757  93.408 117.778  0.00  0.00    -0.311 N 
ATOM     14  C   LIG d   1      -7.687  93.969 117.007  0.00  0.00     0.210 C 
ATOM     15  C   LIG d   1      -8.765  94.753 117.762  0.00  0.00     0.109 C 
ATOM     16  O   LIG d   1      -7.740  93.864 115.773  0.00  0.00    -0.276 OA
ATOM     17  H   LIG d   1      -6.809  93.517 118.772  0.00  0.00     0.149 HD
ENDBRANCH   6  13
BRANCH   5  18
ATOM     18  N   LIG d   1      -7.023  90.882 116.080  0.00  0.00     0.381 N 
ATOM     19  H   LIG d   1      -7.853  90.565 116.542  0.00  0.00    -0.090 HD
ATOM     20  H   LIG d   1      -6.720  90.163 115.447  0.00  0.00    -0.090 HD
ATOM     21  H   LIG d   1      -7.215  91.719 115.576  0.00  0.00    -0.090 HD
ENDBRANCH   5  18
BRANCH   3  22
ATOM     22  C   LIG d   1      -2.630  89.629 117.518  0.00  0.00     0.382 C 
ATOM     23  O   LIG d   1      -1.488  89.792 117.025  0.00  0.00    -0.241 OA
ATOM     24  O   LIG d   1      -2.910  88.550 118.074  0.00  0.00    -0.241 OA
ENDBRANCH   3  22
TORSDOF 7
ENDMDL
MODEL 5
REMARK VINA RESULT:      -4.8      2.709      4.951
REMARK  7 active torsions:
REMARK  status: ('A' for Active; 'I' for Inactive)
REMARK    1  A    between atoms: C_2  and  C_3 
REMARK    2  A    between atoms: C_3  and  O_6 
REMARK    3  A    between atoms: C_3  and  C_4 
REMARK    4  A    between atoms: C_7  and  O_6 
REMARK    5  A    between atoms: C_9  and  C_10 
REMARK    6  A    between atoms: N_15  and  C_14 
REMARK    7  A    between atoms: N_20  and  C_19 
REMARK       I    between atoms: C_22  and  N_20 
ROOT
ATOM      1  C   LIG d   1      -3.876  92.807 117.797  0.00  0.00     0.161 C 
ATOM      2  C   LIG d   1      -5.058  93.536 117.585  0.00  0.00     0.016 C 
ATOM      3  C   LIG d   1      -6.166  93.030 116.866  0.00  0.00     0.038 C 
ATOM      4  C   LIG d   1      -6.225  91.696 116.438  0.00  0.00     0.028 C 
ATOM      5  C   LIG d   1      -4.853  91.078 116.188  0.00  0.00    -0.047 C 
ATOM      6  C   LIG d   1      -3.965  91.310 117.432  0.00  0.00     0.091 C 
ENDROOT
BRANCH   1   7
ATOM      7  O   LIG d   1      -3.443  92.965 119.162  0.00  0.00    -0.368 OA
BRANCH   7   8
ATOM      8  C   LIG d   1      -3.750  94.236 119.785  0.00  0.00     0.119 C 
BRANCH   8   9
ATOM      9  C   LIG d   1      -2.436  95.035 119.883  0.00  0.00     0.028 C 
ATOM     10  C   LIG d   1      -1.454  94.426 120.898  0.00  0.00     0.006 C 
ENDBRANCH   8   9
BRANCH   8  11
ATOM     11  C   LIG d   1      -4.219  94.049 121.231  0.00  0.00     0.028 C 
ATOM     12  C   LIG d   1      -4.683  92.614 121.526  0.00  0.00     0.006 C 
ENDBRANCH   8  11
ENDBRANCH   7   8
ENDBRANCH   1   7
BRANCH   6  13
ATOM     13  N   LIG d   1      -2.578  90.811 117.239  0.00  0.00    -0.311 N 
ATOM     14  C   LIG d   1      -2.192  89.577 117.559  0.00  0.00     0.210 C 
ATOM     15  C   LIG d   1      -0.714  89.274 117.298  0.00  0.00     0.109 C 
ATOM     16  O   LIG d   1      -2.942  88.695 118.004  0.00  0.00    -0.276 OA
ATOM     17  H   LIG d   1      -1.912  91.452 116.854  0.00  0.00     0.149 HD
ENDBRANCH   6  13
BRANCH   5  18
ATOM     18  N   LIG d   1      -5.056  89.650 115.881  0.00  0.00     0.381 N 
ATOM     19  H   LIG d   1      -6.034  89.440 115.875  0.00  0.00    -0.090 HD
ATOM     20  H   LIG d   1      -4.620  89.098 116.598  0.00  0.00    -0.090 HD
ATOM     21  H   LIG d   1      -4.657  89.432 114.995  0.00  0.00    -0.090 HD
ENDBRANCH   5  18
BRANCH   3  22
ATOM     22  C   LIG d   1      -7.215  93.875 116.536  0.00  0.00     0.382 C 
ATOM     23  O   LIG d   1      -7.476  94.864 117.262  0.00  0.00    -0.241 OA
ATOM     24  O   LIG d   1      -7.930  93.636 115.544  0.00  0.00    -0.241 OA
ENDBRANCH   3  22
TORSDOF 7
ENDMDL
MODEL 6
REMARK VINA RESULT:      -4.7      3.386      6.174
REMARK  7 active torsions:
REMARK  status: ('A' for Active; 'I' for Inactive)
REMARK    1  A    between atoms: C_2  and  C_3 
REMARK    2  A    between atoms: C_3  and  O_6 
REMARK    3  A    between atoms: C_3  and  C_4 
REMARK    4  A    between atoms: C_7  and  O_6 
REMARK    5  A    between atoms: C_9  and  C_10 
REMARK    6  A    between atoms: N_15  and  C_14 
REMARK    7  A    between atoms: N_20  and  C_19 
REMARK       I    between atoms: C_22  and  N_20 
ROOT
ATOM      1  C   LIG d   1      -3.488  90.643 117.832  0.00  0.00     0.161 C 
ATOM      2  C   LIG d   1      -4.603  90.302 117.048  0.00  0.00     0.016 C 
ATOM      3  C   LIG d   1      -5.561  91.244 116.608  0.00  0.00     0.038 C 
ATOM      4  C   LIG d   1      -5.386  92.623 116.796  0.00  0.00     0.028 C 
ATOM      5  C   LIG d   1      -4.538  92.965 118.016  0.00  0.00    -0.047 C 
ATOM      6  C   LIG d   1      -3.221  92.158 117.953  0.00  0.00     0.091 C 
ENDROOT
BRANCH   1   7
ATOM      7  O   LIG d   1      -2.317  89.966 117.335  0.00  0.00    -0.368 OA
BRANCH   7   8
ATOM      8  C   LIG d   1      -2.162  88.582 117.736  0.00  0.00     0.119 C 
BRANCH   8   9
ATOM      9  C   LIG d   1      -2.043  88.556 119.272  0.00  0.00     0.028 C 
ATOM     10  C   LIG d   1      -2.539  87.232 119.877  0.00  0.00     0.006 C 
ENDBRANCH   8   9
BRANCH   8  11
ATOM     11  C   LIG d   1      -0.846  87.995 117.217  0.00  0.00     0.028 C 
ATOM     12  C   LIG d   1      -1.040  86.668 116.467  0.00  0.00     0.006 C 
ENDBRANCH   8  11
ENDBRANCH   7   8
ENDBRANCH   1   7
BRANCH   6  13
ATOM     13  N   LIG d   1      -2.369  92.370 119.152  0.00  0.00    -0.311 N 
ATOM     14  C   LIG d   1      -1.041  92.465 119.101  0.00  0.00     0.210 C 
ATOM     15  C   LIG d   1      -0.354  92.662 120.455  0.00  0.00     0.109 C 
ATOM     16  O   LIG d   1      -0.370  92.437 118.058  0.00  0.00    -0.276 OA
ATOM     17  H   LIG d   1      -2.834  92.435 120.036  0.00  0.00     0.149 HD
ENDBRANCH   6  13
BRANCH   5  18
ATOM     18  N   LIG d   1      -4.322  94.424 118.013  0.00  0.00     0.381 N 
ATOM     19  H   LIG d   1      -4.672  94.820 118.863  0.00  0.00    -0.090 HD
ATOM     20  H   LIG d   1      -4.829  94.827 117.245  0.00  0.00    -0.090 HD
ATOM     21  H   LIG d   1      -3.350  94.625 117.920  0.00  0.00    -0.090 HD
ENDBRANCH   5  18
BRANCH   3  22
ATOM     22  C   LIG d   1      -6.730  90.805 116.005  0.00  0.00     0.382 C 
ATOM     23  O   LIG d   1      -7.486  91.625 115.430  0.00  0.00    -0.241 OA
ATOM     24  O   LIG d   1      -7.061  89.605 116.068  0.00  0.00    -0.241 OA
ENDBRANCH   3  22
TORSDOF 7
ENDMDL
MODEL 7
REMARK VINA RESULT:      -4.6      2.091      4.209
REMARK  7 active torsions:
REMARK  status: ('A' for Active; 'I' for Inactive)
REMARK    1  A    between atoms: C_2  and  C_3 
REMARK    2  A    between atoms: C_3  and  O_6 
REMARK    3  A    between atoms: C_3  and  C_4 
REMARK    4  A    between atoms: C_7  and  O_6 
REMARK    5  A    between atoms: C_9  and  C_10 
REMARK    6  A    between atoms: N_15  and  C_14 
REMARK    7  A    between atoms: N_20  and  C_19 
REMARK       I    between atoms: C_22  and  N_20 
ROOT
ATOM      1  C   LIG d   1      -5.084  92.993 118.274  0.00  0.00     0.161 C 
ATOM      2  C   LIG d   1      -5.154  91.771 117.584  0.00  0.00     0.016 C 
ATOM      3  C   LIG d   1      -6.217  91.426 116.718  0.00  0.00     0.038 C 
ATOM      4  C   LIG d   1      -7.213  92.348 116.363  0.00  0.00     0.028 C 
ATOM      5  C   LIG d   1      -7.457  93.415 117.425  0.00  0.00    -0.047 C 
ATOM      6  C   LIG d   1      -6.105  94.055 117.813  0.00  0.00     0.091 C 
ENDROOT
BRANCH   1   7
ATOM      7  O   LIG d   1      -3.745  93.520 118.199  0.00  0.00    -0.368 OA
BRANCH   7   8
ATOM      8  C   LIG d   1      -2.882  93.231 119.327  0.00  0.00     0.119 C 
BRANCH   8   9
ATOM      9  C   LIG d   1      -3.785  93.023 120.559  0.00  0.00     0.028 C 
ATOM     10  C   LIG d   1      -3.222  91.970 121.528  0.00  0.00     0.006 C 
ENDBRANCH   8   9
BRANCH   8  11
ATOM     11  C   LIG d   1      -1.996  94.432 119.672  0.00  0.00     0.028 C 
ATOM     12  C   LIG d   1      -2.806  95.687 120.032  0.00  0.00     0.006 C 
ENDBRANCH   8  11
ENDBRANCH   7   8
ENDBRANCH   1   7
BRANCH   6  13
ATOM     13  N   LIG d   1      -6.242  95.051 118.908  0.00  0.00    -0.311 N 
ATOM     14  C   LIG d   1      -6.602  96.317 118.706  0.00  0.00     0.210 C 
ATOM     15  C   LIG d   1      -6.664  97.181 119.969  0.00  0.00     0.109 C 
ATOM     16  O   LIG d   1      -6.906  96.799 117.604  0.00  0.00    -0.276 OA
ATOM     17  H   LIG d   1      -6.044  94.737 119.838  0.00  0.00     0.149 HD
ENDBRANCH   6  13
BRANCH   5  18
ATOM     18  N   LIG d   1      -8.418  94.386 116.869  0.00  0.00     0.381 N 
ATOM     19  H   LIG d   1      -8.246  95.292 117.256  0.00  0.00    -0.090 HD
ATOM     20  H   LIG d   1      -9.349  94.105 117.124  0.00  0.00    -0.090 HD
ATOM     21  H   LIG d   1      -8.334  94.419 115.877  0.00  0.00    -0.090 HD
ENDBRANCH   5  18
BRANCH   3  22
ATOM     22  C   LIG d   1      -6.312  90.132 116.228  0.00  0.00     0.382 C 
ATOM     23  O   LIG d   1      -7.420  89.544 116.220  0.00  0.00    -0.241 OA
ATOM     24  O   LIG d   1      -5.295  89.530 115.834  0.00  0.00    -0.241 OA
ENDBRANCH   3  22
TORSDOF 7
ENDMDL
MODEL 8
REMARK VINA RESULT:      -4.5      2.152      2.589
REMARK  7 active torsions:
REMARK  status: ('A' for Active; 'I' for Inactive)
REMARK    1  A    between atoms: C_2  and  C_3 
REMARK    2  A    between atoms: C_3  and  O_6 
REMARK    3  A    between atoms: C_3  and  C_4 
REMARK    4  A    between atoms: C_7  and  O_6 
REMARK    5  A    between atoms: C_9  and  C_10 
REMARK    6  A    between atoms: N_15  and  C_14 
REMARK    7  A    between atoms: N_20  and  C_19 
REMARK       I    between atoms: C_22  and  N_20 
ROOT
ATOM      1  C   LIG d   1      -4.228  93.412 117.727  0.00  0.00     0.161 C 
ATOM      2  C   LIG d   1      -5.358  92.794 117.165  0.00  0.00     0.016 C 
ATOM      3  C   LIG d   1      -5.446  91.404 116.925  0.00  0.00     0.038 C 
ATOM      4  C   LIG d   1      -4.462  90.511 117.374  0.00  0.00     0.028 C 
ATOM      5  C   LIG d   1      -3.079  91.142 117.492  0.00  0.00    -0.047 C 
ATOM      6  C   LIG d   1      -3.190  92.440 118.324  0.00  0.00     0.091 C 
ENDROOT
BRANCH   1   7
ATOM      7  O   LIG d   1      -4.640  94.376 118.716  0.00  0.00    -0.368 OA
BRANCH   7   8
ATOM      8  C   LIG d   1      -6.050  94.384 119.050  0.00  0.00     0.119 C 
BRANCH   8   9
ATOM      9  C   LIG d   1      -6.556  95.831 118.887  0.00  0.00     0.028 C 
ATOM     10  C   LIG d   1      -7.606  95.963 117.771  0.00  0.00     0.006 C 
ENDBRANCH   8   9
BRANCH   8  11
ATOM     11  C   LIG d   1      -6.275  94.040 120.525  0.00  0.00     0.028 C 
ATOM     12  C   LIG d   1      -6.984  92.691 120.721  0.00  0.00     0.006 C 
ENDBRANCH   8  11
ENDBRANCH   7   8
ENDBRANCH   1   7
BRANCH   6  13
ATOM     13  N   LIG d   1      -1.896  93.166 118.418  0.00  0.00    -0.311 N 
ATOM     14  C   LIG d   1      -1.334  93.517 119.573  0.00  0.00     0.210 C 
ATOM     15  C   LIG d   1      -0.010  94.276 119.444  0.00  0.00     0.109 C 
ATOM     16  O   LIG d   1      -1.790  93.243 120.693  0.00  0.00    -0.276 OA
ATOM     17  H   LIG d   1      -1.442  93.401 117.557  0.00  0.00     0.149 HD
ENDBRANCH   6  13
BRANCH   5  18
ATOM     18  N   LIG d   1      -2.182  90.141 118.100  0.00  0.00     0.381 N 
ATOM     19  H   LIG d   1      -1.548  90.592 118.729  0.00  0.00    -0.090 HD
ATOM     20  H   LIG d   1      -1.645  89.702 117.372  0.00  0.00    -0.090 HD
ATOM     21  H   LIG d   1      -2.716  89.456 118.588  0.00  0.00    -0.090 HD
ENDBRANCH   5  18
BRANCH   3  22
ATOM     22  C   LIG d   1      -6.510  90.898 116.194  0.00  0.00     0.382 C 
ATOM     23  O   LIG d   1      -6.705  89.660 116.146  0.00  0.00    -0.241 OA
ATOM     24  O   LIG d   1      -7.251  91.662 115.546  0.00  0.00    -0.241 OA
ENDBRANCH   3  22
TORSDOF 7
ENDMDL
MODEL 9
REMARK VINA RESULT:      -4.4      3.108      5.825
REMARK  7 active torsions:
REMARK  status: ('A' for Active; 'I' for Inactive)
REMARK    1  A    between atoms: C_2  and  C_3 
REMARK    2  A    between atoms: C_3  and  O_6 
REMARK    3  A    between atoms: C_3  and  C_4 
REMARK    4  A    between atoms: C_7  and  O_6 
REMARK    5  A    between atoms: C_9  and  C_10 
REMARK    6  A    between atoms: N_15  and  C_14 
REMARK    7  A    between atoms: N_20  and  C_19 
REMARK       I    between atoms: C_22  and  N_20 
ROOT
ATOM      1  C   LIG d   1      -3.012  91.096 117.752  0.00  0.00     0.161 C 
ATOM      2  C   LIG d   1      -4.113  90.565 117.060  0.00  0.00     0.016 C 
ATOM      3  C   LIG d   1      -5.243  91.330 116.690  0.00  0.00     0.038 C 
ATOM      4  C   LIG d   1      -5.282  92.723 116.856  0.00  0.00     0.028 C 
ATOM      5  C   LIG d   1      -4.410  93.220 118.004  0.00  0.00    -0.047 C 
ATOM      6  C   LIG d   1      -2.987  92.636 117.843  0.00  0.00     0.091 C 
ENDROOT
BRANCH   1   7
ATOM      7  O   LIG d   1      -1.787  90.609 117.168  0.00  0.00    -0.368 OA
BRANCH   7   8
ATOM      8  C   LIG d   1      -1.019  89.685 117.977  0.00  0.00     0.119 C 
BRANCH   8   9
ATOM      9  C   LIG d   1      -0.808  88.406 117.144  0.00  0.00     0.028 C 
ATOM     10  C   LIG d   1      -1.954  87.395 117.319  0.00  0.00     0.006 C 
ENDBRANCH   8   9
BRANCH   8  11
ATOM     11  C   LIG d   1      -1.807  89.238 119.212  0.00  0.00     0.028 C 
ATOM     12  C   LIG d   1      -0.989  89.339 120.510  0.00  0.00     0.006 C 
ENDBRANCH   8  11
ENDBRANCH   7   8
ENDBRANCH   1   7
BRANCH   6  13
ATOM     13  N   LIG d   1      -2.092  93.006 118.970  0.00  0.00    -0.311 N 
ATOM     14  C   LIG d   1      -2.373  92.744 120.245  0.00  0.00     0.210 C 
ATOM     15  C   LIG d   1      -1.324  93.229 121.251  0.00  0.00     0.109 C 
ATOM     16  O   LIG d   1      -3.376  92.128 120.637  0.00  0.00    -0.276 OA
ATOM     17  H   LIG d   1      -1.241  93.481 118.740  0.00  0.00     0.149 HD
ENDBRANCH   6  13
BRANCH   5  18
ATOM     18  N   LIG d   1      -4.436  94.695 117.976  0.00  0.00     0.381 N 
ATOM     19  H   LIG d   1      -4.445  95.016 117.028  0.00  0.00    -0.090 HD
ATOM     20  H   LIG d   1      -3.603  95.043 118.419  0.00  0.00    -0.090 HD
ATOM     21  H   LIG d   1      -5.241  95.031 118.456  0.00  0.00    -0.090 HD
ENDBRANCH   5  18
BRANCH   3  22
ATOM     22  C   LIG d   1      -6.367  90.696 116.184  0.00  0.00     0.382 C 
ATOM     23  O   LIG d   1      -6.316  89.480 115.877  0.00  0.00    -0.241 OA
ATOM     24  O   LIG d   1      -7.419  91.334 115.989  0.00  0.00    -0.241 OA
ENDBRANCH   3  22
TORSDOF 7
ENDMDL
