MODEL 1
REMARK VINA RESULT:      -5.3      0.000      0.000
REMARK  7 active torsions:
REMARK  status: ('A' for Active; 'I' for Inactive)
REMARK    1  A    between atoms: C_2  and  C_3 
REMARK    2  A    between atoms: C_3  and  O_6 
REMARK    3  A    between atoms: C_3  and  C_4 
REMARK    4  A    between atoms: C_7  and  O_6 
REMARK    5  A    between atoms: C_9  and  C_10 
REMARK    6  A    between atoms: N_15  and  C_14 
REMARK    7  A    between atoms: N_20  and  C_19 
REMARK       I    between atoms: C_22  and  N_20 
ROOT
ATOM      1  C   LIG d   1      -4.820  92.538 119.002  0.00  0.00     0.161 C 
ATOM      2  C   LIG d   1      -6.169  92.882 118.817  0.00  0.00     0.016 C 
ATOM      3  C   LIG d   1      -6.756  94.050 119.355  0.00  0.00     0.038 C 
ATOM      4  C   LIG d   1      -5.991  95.037 119.994  0.00  0.00     0.028 C 
ATOM      5  C   LIG d   1      -4.722  94.494 120.643  0.00  0.00    -0.047 C 
ATOM      6  C   LIG d   1      -3.944  93.658 119.602  0.00  0.00     0.091 C 
ENDROOT
BRANCH   1   7
ATOM      7  O   LIG d   1      -4.258  92.074 117.759  0.00  0.00    -0.368 OA
BRANCH   7   8
ATOM      8  C   LIG d   1      -4.256  90.640 117.556  0.00  0.00     0.119 C 
BRANCH   8   9
ATOM      9  C   LIG d   1      -2.786  90.180 117.520  0.00  0.00     0.028 C 
ATOM     10  C   LIG d   1      -2.363  89.465 118.815  0.00  0.00     0.006 C 
ENDBRANCH   8   9
BRANCH   8  11
ATOM     11  C   LIG d   1      -4.830  90.270 116.185  0.00  0.00     0.028 C 
ATOM     12  C   LIG d   1      -6.366  90.220 116.176  0.00  0.00     0.006 C 
ENDBRANCH   8  11
ENDBRANCH   7   8
ENDBRANCH   1   7
BRANCH   6  13
ATOM     13  N   LIG d   1      -2.732  93.020 120.179  0.00  0.00    -0.311 N 
ATOM     14  C   LIG d   1      -1.534  93.063 119.598  0.00  0.00     0.210 C 
ATOM     15  C   LIG d   1      -0.424  92.323 120.351  0.00  0.00     0.109 C 
ATOM     16  O   LIG d   1      -1.279  93.669 118.547  0.00  0.00    -0.276 OA
ATOM     17  H   LIG d   1      -2.842  92.533 121.047  0.00  0.00     0.149 HD
ENDBRANCH   6  13
BRANCH   5  18
ATOM     18  N   LIG d   1      -3.954  95.646 121.151  0.00  0.00     0.381 N 
ATOM     19  H   LIG d   1      -4.428  96.497 120.923  0.00  0.00    -0.090 HD
ATOM     20  H   LIG d   1      -3.053  95.658 120.705  0.00  0.00    -0.090 HD
ATOM     21  H   LIG d   1      -3.843  95.574 122.139  0.00  0.00    -0.090 HD
ENDBRANCH   5  18
BRANCH   3  22
ATOM     22  C   LIG d   1      -8.131  94.221 119.292  0.00  0.00     0.382 C 
ATOM     23  O   LIG d   1      -8.801  93.599 118.432  0.00  0.00    -0.241 OA
ATOM     24  O   LIG d   1      -8.704  95.022 120.054  0.00  0.00    -0.241 OA
ENDBRANCH   3  22
TORSDOF 7
ENDMDL
MODEL 2
REMARK VINA RESULT:      -5.1      2.479      3.920
REMARK  7 active torsions:
REMARK  status: ('A' for Active; 'I' for Inactive)
REMARK    1  A    between atoms: C_2  and  C_3 
REMARK    2  A    between atoms: C_3  and  O_6 
REMARK    3  A    between atoms: C_3  and  C_4 
REMARK    4  A    between atoms: C_7  and  O_6 
REMARK    5  A    between atoms: C_9  and  C_10 
REMARK    6  A    between atoms: N_15  and  C_14 
REMARK    7  A    between atoms: N_20  and  C_19 
REMARK       I    between atoms: C_22  and  N_20 
ROOT
ATOM      1  C   LIG d   1      -3.395  91.125 118.111  0.00  0.00     0.161 C 
ATOM      2  C   LIG d   1      -4.169  90.582 117.072  0.00  0.00     0.016 C 
ATOM      3  C   LIG d   1      -5.474  91.027 116.759  0.00  0.00     0.038 C 
ATOM      4  C   LIG d   1      -6.039  92.156 117.372  0.00  0.00     0.028 C 
ATOM      5  C   LIG d   1      -5.496  92.420 118.773  0.00  0.00    -0.047 C 
ATOM      6  C   LIG d   1      -3.951  92.430 118.718  0.00  0.00     0.091 C 
ENDROOT
BRANCH   1   7
ATOM      7  O   LIG d   1      -2.040  91.320 117.661  0.00  0.00    -0.368 OA
BRANCH   7   8
ATOM      8  C   LIG d   1      -1.080  90.316 118.075  0.00  0.00     0.119 C 
BRANCH   8   9
ATOM      9  C   LIG d   1      -1.697  89.547 119.259  0.00  0.00     0.028 C 
ATOM     10  C   LIG d   1      -0.818  89.608 120.520  0.00  0.00     0.006 C 
ENDBRANCH   8   9
BRANCH   8  11
ATOM     11  C   LIG d   1       0.195  90.959 118.629  0.00  0.00     0.028 C 
ATOM     12  C   LIG d   1       0.370  92.418 118.179  0.00  0.00     0.006 C 
ENDBRANCH   8  11
ENDBRANCH   7   8
ENDBRANCH   1   7
BRANCH   6  13
ATOM     13  N   LIG d   1      -3.338  92.599 120.061  0.00  0.00    -0.311 N 
ATOM     14  C   LIG d   1      -2.463  93.560 120.352  0.00  0.00     0.210 C 
ATOM     15  C   LIG d   1      -1.938  93.542 121.791  0.00  0.00     0.109 C 
ATOM     16  O   LIG d   1      -2.097  94.445 119.565  0.00  0.00    -0.276 OA
ATOM     17  H   LIG d   1      -3.603  91.943 120.770  0.00  0.00     0.149 HD
ENDBRANCH   6  13
BRANCH   5  18
ATOM     18  N   LIG d   1      -6.066  93.699 119.238  0.00  0.00     0.381 N 
ATOM     19  H   LIG d   1      -6.827  93.522 119.864  0.00  0.00    -0.090 HD
ATOM     20  H   LIG d   1      -6.421  94.204 118.445  0.00  0.00    -0.090 HD
ATOM     21  H   LIG d   1      -5.366  94.237 119.698  0.00  0.00    -0.090 HD
ENDBRANCH   5  18
BRANCH   3  22
ATOM     22  C   LIG d   1      -6.243  90.316 115.851  0.00  0.00     0.382 C 
ATOM     23  O   LIG d   1      -7.354  90.768 115.482  0.00  0.00    -0.241 OA
ATOM     24  O   LIG d   1      -5.861  89.208 115.431  0.00  0.00    -0.241 OA
ENDBRANCH   3  22
TORSDOF 7
ENDMDL
MODEL 3
REMARK VINA RESULT:      -4.9      2.241      4.730
REMARK  7 active torsions:
REMARK  status: ('A' for Active; 'I' for Inactive)
REMARK    1  A    between atoms: C_2  and  C_3 
REMARK    2  A    between atoms: C_3  and  O_6 
REMARK    3  A    between atoms: C_3  and  C_4 
REMARK    4  A    between atoms: C_7  and  O_6 
REMARK    5  A    between atoms: C_9  and  C_10 
REMARK    6  A    between atoms: N_15  and  C_14 
REMARK    7  A    between atoms: N_20  and  C_19 
REMARK       I    between atoms: C_22  and  N_20 
ROOT
ATOM      1  C   LIG d   1      -3.985  92.513 118.512  0.00  0.00     0.161 C 
ATOM      2  C   LIG d   1      -5.095  92.033 117.797  0.00  0.00     0.016 C 
ATOM      3  C   LIG d   1      -5.084  90.826 117.062  0.00  0.00     0.038 C 
ATOM      4  C   LIG d   1      -4.002  89.934 117.116  0.00  0.00     0.028 C 
ATOM      5  C   LIG d   1      -2.671  90.615 117.416  0.00  0.00    -0.047 C 
ATOM      6  C   LIG d   1      -2.832  91.500 118.674  0.00  0.00     0.091 C 
ENDROOT
BRANCH   1   7
ATOM      7  O   LIG d   1      -4.407  93.001 119.801  0.00  0.00    -0.368 OA
BRANCH   7   8
ATOM      8  C   LIG d   1      -5.718  92.575 120.245  0.00  0.00     0.119 C 
BRANCH   8   9
ATOM      9  C   LIG d   1      -6.522  93.841 120.600  0.00  0.00     0.028 C 
ATOM     10  C   LIG d   1      -7.699  94.078 119.638  0.00  0.00     0.006 C 
ENDBRANCH   8   9
BRANCH   8  11
ATOM     11  C   LIG d   1      -5.632  91.772 121.547  0.00  0.00     0.028 C 
ATOM     12  C   LIG d   1      -4.204  91.702 122.110  0.00  0.00     0.006 C 
ENDBRANCH   8  11
ENDBRANCH   7   8
ENDBRANCH   1   7
BRANCH   6  13
ATOM     13  N   LIG d   1      -1.599  92.268 118.988  0.00  0.00    -0.311 N 
ATOM     14  C   LIG d   1      -0.676  91.850 119.853  0.00  0.00     0.210 C 
ATOM     15  C   LIG d   1       0.508  92.803 120.046  0.00  0.00     0.109 C 
ATOM     16  O   LIG d   1      -0.710  90.766 120.454  0.00  0.00    -0.276 OA
ATOM     17  H   LIG d   1      -1.476  93.145 118.521  0.00  0.00     0.149 HD
ENDBRANCH   6  13
BRANCH   5  18
ATOM     18  N   LIG d   1      -1.656  89.557 117.580  0.00  0.00     0.381 N 
ATOM     19  H   LIG d   1      -2.098  88.705 117.861  0.00  0.00    -0.090 HD
ATOM     20  H   LIG d   1      -1.014  89.832 118.302  0.00  0.00    -0.090 HD
ATOM     21  H   LIG d   1      -1.166  89.419 116.724  0.00  0.00    -0.090 HD
ENDBRANCH   5  18
BRANCH   3  22
ATOM     22  C   LIG d   1      -6.149  90.518 116.230  0.00  0.00     0.382 C 
ATOM     23  O   LIG d   1      -6.941  91.421 115.866  0.00  0.00    -0.241 OA
ATOM     24  O   LIG d   1      -6.355  89.342 115.874  0.00  0.00    -0.241 OA
ENDBRANCH   3  22
TORSDOF 7
ENDMDL
MODEL 4
REMARK VINA RESULT:      -4.7      2.175      4.698
REMARK  7 active torsions:
REMARK  status: ('A' for Active; 'I' for Inactive)
REMARK    1  A    between atoms: C_2  and  C_3 
REMARK    2  A    between atoms: C_3  and  O_6 
REMARK    3  A    between atoms: C_3  and  C_4 
REMARK    4  A    between atoms: C_7  and  O_6 
REMARK    5  A    between atoms: C_9  and  C_10 
REMARK    6  A    between atoms: N_15  and  C_14 
REMARK    7  A    between atoms: N_20  and  C_19 
REMARK       I    between atoms: C_22  and  N_20 
ROOT
ATOM      1  C   LIG d   1      -4.552  92.435 118.851  0.00  0.00     0.161 C 
ATOM      2  C   LIG d   1      -5.568  91.924 118.026  0.00  0.00     0.016 C 
ATOM      3  C   LIG d   1      -5.363  90.883 117.092  0.00  0.00     0.038 C 
ATOM      4  C   LIG d   1      -4.155  90.174 117.026  0.00  0.00     0.028 C 
ATOM      5  C   LIG d   1      -2.949  90.987 117.485  0.00  0.00    -0.047 C 
ATOM      6  C   LIG d   1      -3.255  91.599 118.871  0.00  0.00     0.091 C 
ENDROOT
BRANCH   1   7
ATOM      7  O   LIG d   1      -5.054  92.614 120.190  0.00  0.00    -0.368 OA
BRANCH   7   8
ATOM      8  C   LIG d   1      -5.383  93.973 120.570  0.00  0.00     0.119 C 
BRANCH   8   9
ATOM      9  C   LIG d   1      -4.611  94.292 121.865  0.00  0.00     0.028 C 
ATOM     10  C   LIG d   1      -3.625  95.459 121.687  0.00  0.00     0.006 C 
ENDBRANCH   8   9
BRANCH   8  11
ATOM     11  C   LIG d   1      -6.864  94.105 120.938  0.00  0.00     0.028 C 
ATOM     12  C   LIG d   1      -7.538  95.316 120.274  0.00  0.00     0.006 C 
ENDBRANCH   8  11
ENDBRANCH   7   8
ENDBRANCH   1   7
BRANCH   6  13
ATOM     13  N   LIG d   1      -2.161  92.479 119.357  0.00  0.00    -0.311 N 
ATOM     14  C   LIG d   1      -1.609  92.365 120.564  0.00  0.00     0.210 C 
ATOM     15  C   LIG d   1      -0.509  93.386 120.871  0.00  0.00     0.109 C 
ATOM     16  O   LIG d   1      -1.904  91.494 121.397  0.00  0.00    -0.276 OA
ATOM     17  H   LIG d   1      -1.839  93.193 118.733  0.00  0.00     0.149 HD
ENDBRANCH   6  13
BRANCH   5  18
ATOM     18  N   LIG d   1      -1.781  90.086 117.496  0.00  0.00     0.381 N 
ATOM     19  H   LIG d   1      -1.032  90.496 116.975  0.00  0.00    -0.090 HD
ATOM     20  H   LIG d   1      -2.035  89.219 117.055  0.00  0.00    -0.090 HD
ATOM     21  H   LIG d   1      -1.490  89.917 118.433  0.00  0.00    -0.090 HD
ENDBRANCH   5  18
BRANCH   3  22
ATOM     22  C   LIG d   1      -6.362  90.568 116.183  0.00  0.00     0.382 C 
ATOM     23  O   LIG d   1      -6.610  89.368 115.915  0.00  0.00    -0.241 OA
ATOM     24  O   LIG d   1      -6.988  91.470 115.595  0.00  0.00    -0.241 OA
ENDBRANCH   3  22
TORSDOF 7
ENDMDL
MODEL 5
REMARK VINA RESULT:      -4.6      1.003      2.066
REMARK  7 active torsions:
REMARK  status: ('A' for Active; 'I' for Inactive)
REMARK    1  A    between atoms: C_2  and  C_3 
REMARK    2  A    between atoms: C_3  and  O_6 
REMARK    3  A    between atoms: C_3  and  C_4 
REMARK    4  A    between atoms: C_7  and  O_6 
REMARK    5  A    between atoms: C_9  and  C_10 
REMARK    6  A    between atoms: N_15  and  C_14 
REMARK    7  A    between atoms: N_20  and  C_19 
REMARK       I    between atoms: C_22  and  N_20 
ROOT
ATOM      1  C   LIG d   1      -4.983  92.533 120.272  0.00  0.00     0.161 C 
ATOM      2  C   LIG d   1      -6.297  92.808 119.858  0.00  0.00     0.016 C 
ATOM      3  C   LIG d   1      -6.777  94.113 119.606  0.00  0.00     0.038 C 
ATOM      4  C   LIG d   1      -5.927  95.229 119.606  0.00  0.00     0.028 C 
ATOM      5  C   LIG d   1      -4.710  95.063 120.510  0.00  0.00    -0.047 C 
ATOM      6  C   LIG d   1      -4.011  93.727 120.170  0.00  0.00     0.091 C 
ENDROOT
BRANCH   1   7
ATOM      7  O   LIG d   1      -4.467  91.402 119.543  0.00  0.00    -0.368 OA
BRANCH   7   8
ATOM      8  C   LIG d   1      -4.116  91.643 118.158  0.00  0.00     0.119 C 
BRANCH   8   9
ATOM      9  C   LIG d   1      -5.062  90.795 117.286  0.00  0.00     0.028 C 
ATOM     10  C   LIG d   1      -5.833  91.643 116.261  0.00  0.00     0.006 C 
ENDBRANCH   8   9
BRANCH   8  11
ATOM     11  C   LIG d   1      -2.707  91.131 117.844  0.00  0.00     0.028 C 
ATOM     12  C   LIG d   1      -2.270  89.984 118.768  0.00  0.00     0.006 C 
ENDBRANCH   8  11
ENDBRANCH   7   8
ENDBRANCH   1   7
BRANCH   6  13
ATOM     13  N   LIG d   1      -2.859  93.446 121.066  0.00  0.00    -0.311 N 
ATOM     14  C   LIG d   1      -1.592  93.451 120.655  0.00  0.00     0.210 C 
ATOM     15  C   LIG d   1      -0.560  93.116 121.736  0.00  0.00     0.109 C 
ATOM     16  O   LIG d   1      -1.223  93.732 119.505  0.00  0.00    -0.276 OA
ATOM     17  H   LIG d   1      -3.065  93.238 122.023  0.00  0.00     0.149 HD
ENDBRANCH   6  13
BRANCH   5  18
ATOM     18  N   LIG d   1      -3.841  96.238 120.309  0.00  0.00     0.381 N 
ATOM     19  H   LIG d   1      -3.237  96.351 121.097  0.00  0.00    -0.090 HD
ATOM     20  H   LIG d   1      -4.417  97.058 120.232  0.00  0.00    -0.090 HD
ATOM     21  H   LIG d   1      -3.300  96.124 119.480  0.00  0.00    -0.090 HD
ENDBRANCH   5  18
BRANCH   3  22
ATOM     22  C   LIG d   1      -8.132  94.318 119.389  0.00  0.00     0.382 C 
ATOM     23  O   LIG d   1      -8.761  95.146 120.091  0.00  0.00    -0.241 OA
ATOM     24  O   LIG d   1      -8.742  93.653 118.531  0.00  0.00    -0.241 OA
ENDBRANCH   3  22
TORSDOF 7
ENDMDL
MODEL 6
REMARK VINA RESULT:      -4.4      2.391      4.327
REMARK  7 active torsions:
REMARK  status: ('A' for Active; 'I' for Inactive)
REMARK    1  A    between atoms: C_2  and  C_3 
REMARK    2  A    between atoms: C_3  and  O_6 
REMARK    3  A    between atoms: C_3  and  C_4 
REMARK    4  A    between atoms: C_7  and  O_6 
REMARK    5  A    between atoms: C_9  and  C_10 
REMARK    6  A    between atoms: N_15  and  C_14 
REMARK    7  A    between atoms: N_20  and  C_19 
REMARK       I    between atoms: C_22  and  N_20 
ROOT
ATOM      1  C   LIG d   1      -3.375  91.227 118.635  0.00  0.00     0.161 C 
ATOM      2  C   LIG d   1      -3.946  90.477 117.594  0.00  0.00     0.016 C 
ATOM      3  C   LIG d   1      -5.192  90.788 117.003  0.00  0.00     0.038 C 
ATOM      4  C   LIG d   1      -5.886  91.967 117.314  0.00  0.00     0.028 C 
ATOM      5  C   LIG d   1      -5.595  92.490 118.717  0.00  0.00    -0.047 C 
ATOM      6  C   LIG d   1      -4.064  92.580 118.910  0.00  0.00     0.091 C 
ENDROOT
BRANCH   1   7
ATOM      7  O   LIG d   1      -1.969  91.423 118.382  0.00  0.00    -0.368 OA
BRANCH   7   8
ATOM      8  C   LIG d   1      -1.070  91.052 119.455  0.00  0.00     0.119 C 
BRANCH   8   9
ATOM      9  C   LIG d   1       0.245  90.572 118.812  0.00  0.00     0.028 C 
ATOM     10  C   LIG d   1       0.050  89.319 117.942  0.00  0.00     0.006 C 
ENDBRANCH   8   9
BRANCH   8  11
ATOM     11  C   LIG d   1      -1.603  89.847 120.236  0.00  0.00     0.028 C 
ATOM     12  C   LIG d   1      -1.405  89.986 121.754  0.00  0.00     0.006 C 
ENDBRANCH   8  11
ENDBRANCH   7   8
ENDBRANCH   1   7
BRANCH   6  13
ATOM     13  N   LIG d   1      -3.691  93.003 120.285  0.00  0.00    -0.311 N 
ATOM     14  C   LIG d   1      -4.198  92.450 121.386  0.00  0.00     0.210 C 
ATOM     15  C   LIG d   1      -3.693  93.049 122.702  0.00  0.00     0.109 C 
ATOM     16  O   LIG d   1      -4.994  91.499 121.397  0.00  0.00    -0.276 OA
ATOM     17  H   LIG d   1      -3.027  93.748 120.369  0.00  0.00     0.149 HD
ENDBRANCH   6  13
BRANCH   5  18
ATOM     18  N   LIG d   1      -6.273  93.792 118.857  0.00  0.00     0.381 N 
ATOM     19  H   LIG d   1      -6.749  94.019 118.007  0.00  0.00    -0.090 HD
ATOM     20  H   LIG d   1      -5.583  94.501 119.031  0.00  0.00    -0.090 HD
ATOM     21  H   LIG d   1      -6.923  93.758 119.611  0.00  0.00    -0.090 HD
ENDBRANCH   5  18
BRANCH   3  22
ATOM     22  C   LIG d   1      -5.776  89.893 116.120  0.00  0.00     0.382 C 
ATOM     23  O   LIG d   1      -5.056  89.132 115.430  0.00  0.00    -0.241 OA
ATOM     24  O   LIG d   1      -7.013  89.868 115.971  0.00  0.00    -0.241 OA
ENDBRANCH   3  22
TORSDOF 7
ENDMDL
MODEL 7
REMARK VINA RESULT:      -4.3      2.830      4.834
REMARK  7 active torsions:
REMARK  status: ('A' for Active; 'I' for Inactive)
REMARK    1  A    between atoms: C_2  and  C_3 
REMARK    2  A    between atoms: C_3  and  O_6 
REMARK    3  A    between atoms: C_3  and  C_4 
REMARK    4  A    between atoms: C_7  and  O_6 
REMARK    5  A    between atoms: C_9  and  C_10 
REMARK    6  A    between atoms: N_15  and  C_14 
REMARK    7  A    between atoms: N_20  and  C_19 
REMARK       I    between atoms: C_22  and  N_20 
ROOT
ATOM      1  C   LIG d   1      -2.726  92.939 118.550  0.00  0.00     0.161 C 
ATOM      2  C   LIG d   1      -2.051  93.464 119.665  0.00  0.00     0.016 C 
ATOM      3  C   LIG d   1      -2.644  93.597 120.942  0.00  0.00     0.038 C 
ATOM      4  C   LIG d   1      -3.911  93.069 121.229  0.00  0.00     0.028 C 
ATOM      5  C   LIG d   1      -4.822  92.983 120.010  0.00  0.00    -0.047 C 
ATOM      6  C   LIG d   1      -4.071  92.255 118.872  0.00  0.00     0.091 C 
ENDROOT
BRANCH   1   7
ATOM      7  O   LIG d   1      -1.860  92.032 117.839  0.00  0.00    -0.368 OA
BRANCH   7   8
ATOM      8  C   LIG d   1      -0.889  91.316 118.641  0.00  0.00     0.119 C 
BRANCH   8   9
ATOM      9  C   LIG d   1       0.438  91.301 117.857  0.00  0.00     0.028 C 
ATOM     10  C   LIG d   1       1.294  92.549 118.127  0.00  0.00     0.006 C 
ENDBRANCH   8   9
BRANCH   8  11
ATOM     11  C   LIG d   1      -1.279  89.844 118.807  0.00  0.00     0.028 C 
ATOM     12  C   LIG d   1      -1.688  89.495 120.247  0.00  0.00     0.006 C 
ENDBRANCH   8  11
ENDBRANCH   7   8
ENDBRANCH   1   7
BRANCH   6  13
ATOM     13  N   LIG d   1      -4.861  92.203 117.614  0.00  0.00    -0.311 N 
ATOM     14  C   LIG d   1      -4.993  91.101 116.877  0.00  0.00     0.210 C 
ATOM     15  C   LIG d   1      -5.833  91.270 115.607  0.00  0.00     0.109 C 
ATOM     16  O   LIG d   1      -4.521  89.993 117.170  0.00  0.00    -0.276 OA
ATOM     17  H   LIG d   1      -5.304  93.050 117.318  0.00  0.00     0.149 HD
ENDBRANCH   6  13
BRANCH   5  18
ATOM     18  N   LIG d   1      -6.057  92.290 120.424  0.00  0.00     0.381 N 
ATOM     19  H   LIG d   1      -6.849  92.720 119.989  0.00  0.00    -0.090 HD
ATOM     20  H   LIG d   1      -6.159  92.374 121.420  0.00  0.00    -0.090 HD
ATOM     21  H   LIG d   1      -6.010  91.328 120.168  0.00  0.00    -0.090 HD
ENDBRANCH   5  18
BRANCH   3  22
ATOM     22  C   LIG d   1      -1.981  94.300 121.937  0.00  0.00     0.382 C 
ATOM     23  O   LIG d   1      -1.001  93.781 122.524  0.00  0.00    -0.241 OA
ATOM     24  O   LIG d   1      -2.379  95.427 122.286  0.00  0.00    -0.241 OA
ENDBRANCH   3  22
TORSDOF 7
ENDMDL
MODEL 8
REMARK VINA RESULT:      -4.3      4.366      6.323
REMARK  7 active torsions:
REMARK  status: ('A' for Active; 'I' for Inactive)
REMARK    1  A    between atoms: C_2  and  C_3 
REMARK    2  A    between atoms: C_3  and  O_6 
REMARK    3  A    between atoms: C_3  and  C_4 
REMARK    4  A    between atoms: C_7  and  O_6 
REMARK    5  A    between atoms: C_9  and  C_10 
REMARK    6  A    between atoms: N_15  and  C_14 
REMARK    7  A    between atoms: N_20  and  C_19 
REMARK       I    between atoms: C_22  and  N_20 
ROOT
ATOM      1  C   LIG d   1       0.787  90.447 118.888  0.00  0.00     0.161 C 
ATOM      2  C   LIG d   1      -0.500  89.890 118.795  0.00  0.00     0.016 C 
ATOM      3  C   LIG d   1      -1.583  90.535 118.155  0.00  0.00     0.038 C 
ATOM      4  C   LIG d   1      -1.413  91.723 117.428  0.00  0.00     0.028 C 
ATOM      5  C   LIG d   1      -0.248  92.574 117.921  0.00  0.00    -0.047 C 
ATOM      6  C   LIG d   1       1.018  91.691 118.005  0.00  0.00     0.091 C 
ENDROOT
BRANCH   1   7
ATOM      7  O   LIG d   1       1.777  89.440 118.604  0.00  0.00    -0.368 OA
BRANCH   7   8
ATOM      8  C   LIG d   1       1.931  89.072 117.211  0.00  0.00     0.119 C 
BRANCH   8   9
ATOM      9  C   LIG d   1       1.676  87.556 117.103  0.00  0.00     0.028 C 
ATOM     10  C   LIG d   1       0.634  87.212 116.025  0.00  0.00     0.006 C 
ENDBRANCH   8   9
BRANCH   8  11
ATOM     11  C   LIG d   1       3.372  89.275 116.736  0.00  0.00     0.028 C 
ATOM     12  C   LIG d   1       3.461  90.080 115.430  0.00  0.00     0.006 C 
ENDBRANCH   8  11
ENDBRANCH   7   8
ENDBRANCH   1   7
BRANCH   6  13
ATOM     13  N   LIG d   1       2.185  92.425 118.560  0.00  0.00    -0.311 N 
ATOM     14  C   LIG d   1       3.043  93.114 117.809  0.00  0.00     0.210 C 
ATOM     15  C   LIG d   1       4.187  93.780 118.579  0.00  0.00     0.109 C 
ATOM     16  O   LIG d   1       2.946  93.263 116.581  0.00  0.00    -0.276 OA
ATOM     17  H   LIG d   1       2.321  92.384 119.551  0.00  0.00     0.149 HD
ENDBRANCH   6  13
BRANCH   5  18
ATOM     18  N   LIG d   1      -0.100  93.710 116.992  0.00  0.00     0.381 N 
ATOM     19  H   LIG d   1       0.371  93.409 116.162  0.00  0.00    -0.090 HD
ATOM     20  H   LIG d   1       0.458  94.420 117.432  0.00  0.00    -0.090 HD
ATOM     21  H   LIG d   1      -0.996  94.078 116.759  0.00  0.00    -0.090 HD
ENDBRANCH   5  18
BRANCH   3  22
ATOM     22  C   LIG d   1      -2.861  90.011 118.272  0.00  0.00     0.382 C 
ATOM     23  O   LIG d   1      -3.104  88.853 117.857  0.00  0.00    -0.241 OA
ATOM     24  O   LIG d   1      -3.784  90.699 118.747  0.00  0.00    -0.241 OA
ENDBRANCH   3  22
TORSDOF 7
ENDMDL
MODEL 9
REMARK VINA RESULT:      -4.2      1.295      2.183
REMARK  7 active torsions:
REMARK  status: ('A' for Active; 'I' for Inactive)
REMARK    1  A    between atoms: C_2  and  C_3 
REMARK    2  A    between atoms: C_3  and  O_6 
REMARK    3  A    between atoms: C_3  and  C_4 
REMARK    4  A    between atoms: C_7  and  O_6 
REMARK    5  A    between atoms: C_9  and  C_10 
REMARK    6  A    between atoms: N_15  and  C_14 
REMARK    7  A    between atoms: N_20  and  C_19 
REMARK       I    between atoms: C_22  and  N_20 
ROOT
ATOM      1  C   LIG d   1      -3.832  92.540 118.951  0.00  0.00     0.161 C 
ATOM      2  C   LIG d   1      -5.142  92.942 119.262  0.00  0.00     0.016 C 
ATOM      3  C   LIG d   1      -5.440  93.989 120.164  0.00  0.00     0.038 C 
ATOM      4  C   LIG d   1      -4.439  94.811 120.703  0.00  0.00     0.028 C 
ATOM      5  C   LIG d   1      -3.083  94.122 120.812  0.00  0.00    -0.047 C 
ATOM      6  C   LIG d   1      -2.727  93.497 119.444  0.00  0.00     0.091 C 
ENDROOT
BRANCH   1   7
ATOM      7  O   LIG d   1      -3.712  92.325 117.530  0.00  0.00    -0.368 OA
BRANCH   7   8
ATOM      8  C   LIG d   1      -3.669  90.944 117.096  0.00  0.00     0.119 C 
BRANCH   8   9
ATOM      9  C   LIG d   1      -5.108  90.526 116.737  0.00  0.00     0.028 C 
ATOM     10  C   LIG d   1      -5.176  89.717 115.431  0.00  0.00     0.006 C 
ENDBRANCH   8   9
BRANCH   8  11
ATOM     11  C   LIG d   1      -3.249  90.013 118.238  0.00  0.00     0.028 C 
ATOM     12  C   LIG d   1      -1.880  89.357 117.999  0.00  0.00     0.006 C 
ENDBRANCH   8  11
ENDBRANCH   7   8
ENDBRANCH   1   7
BRANCH   6  13
ATOM     13  N   LIG d   1      -1.454  92.731 119.485  0.00  0.00    -0.311 N 
ATOM     14  C   LIG d   1      -0.509  92.828 118.551  0.00  0.00     0.210 C 
ATOM     15  C   LIG d   1       0.716  91.936 118.775  0.00  0.00     0.109 C 
ATOM     16  O   LIG d   1      -0.555  93.593 117.575  0.00  0.00    -0.276 OA
ATOM     17  H   LIG d   1      -1.320  92.110 120.259  0.00  0.00     0.149 HD
ENDBRANCH   6  13
BRANCH   5  18
ATOM     18  N   LIG d   1      -2.105  95.131 121.259  0.00  0.00     0.381 N 
ATOM     19  H   LIG d   1      -2.163  95.941 120.675  0.00  0.00    -0.090 HD
ATOM     20  H   LIG d   1      -1.180  94.747 121.175  0.00  0.00    -0.090 HD
ATOM     21  H   LIG d   1      -2.283  95.383 122.206  0.00  0.00    -0.090 HD
ENDBRANCH   5  18
BRANCH   3  22
ATOM     22  C   LIG d   1      -6.751  94.198 120.565  0.00  0.00     0.382 C 
ATOM     23  O   LIG d   1      -7.698  93.858 119.815  0.00  0.00    -0.241 OA
ATOM     24  O   LIG d   1      -6.998  94.762 121.648  0.00  0.00    -0.241 OA
ENDBRANCH   3  22
TORSDOF 7
ENDMDL
