MODEL 1
REMARK VINA RESULT:      -5.2      0.000      0.000
REMARK  7 active torsions:
REMARK  status: ('A' for Active; 'I' for Inactive)
REMARK    1  A    between atoms: C_2  and  C_3 
REMARK    2  A    between atoms: C_3  and  O_6 
REMARK    3  A    between atoms: C_3  and  C_4 
REMARK    4  A    between atoms: C_7  and  O_6 
REMARK    5  A    between atoms: C_9  and  C_10 
REMARK    6  A    between atoms: N_15  and  C_14 
REMARK    7  A    between atoms: N_20  and  C_19 
REMARK       I    between atoms: C_22  and  N_20 
ROOT
ATOM      1  C   LIG d   1      -6.481  92.520 118.195  0.00  0.00     0.161 C 
ATOM      2  C   LIG d   1      -6.740  91.368 117.434  0.00  0.00     0.016 C 
ATOM      3  C   LIG d   1      -5.725  90.589 116.832  0.00  0.00     0.038 C 
ATOM      4  C   LIG d   1      -4.364  90.825 117.078  0.00  0.00     0.028 C 
ATOM      5  C   LIG d   1      -4.055  92.276 117.429  0.00  0.00    -0.047 C 
ATOM      6  C   LIG d   1      -4.998  92.729 118.567  0.00  0.00     0.091 C 
ENDROOT
BRANCH   1   7
ATOM      7  O   LIG d   1      -7.299  92.516 119.381  0.00  0.00    -0.368 OA
BRANCH   7   8
ATOM      8  C   LIG d   1      -8.425  93.429 119.383  0.00  0.00     0.119 C 
BRANCH   8   9
ATOM      9  C   LIG d   1      -8.311  94.306 118.121  0.00  0.00     0.028 C 
ATOM     10  C   LIG d   1      -8.462  95.804 118.432  0.00  0.00     0.006 C 
ENDBRANCH   8   9
BRANCH   8  11
ATOM     11  C   LIG d   1      -8.350  94.403 120.562  0.00  0.00     0.028 C 
ATOM     12  C   LIG d   1      -7.625  93.810 121.780  0.00  0.00     0.006 C 
ENDBRANCH   8  11
ENDBRANCH   7   8
ENDBRANCH   1   7
BRANCH   6  13
ATOM     13  N   LIG d   1      -4.820  94.164 118.914  0.00  0.00    -0.311 N 
ATOM     14  C   LIG d   1      -4.418  94.583 120.113  0.00  0.00     0.210 C 
ATOM     15  C   LIG d   1      -4.318  96.104 120.265  0.00  0.00     0.109 C 
ATOM     16  O   LIG d   1      -4.103  93.839 121.054  0.00  0.00    -0.276 OA
ATOM     17  H   LIG d   1      -5.023  94.834 118.199  0.00  0.00     0.149 HD
ENDBRANCH   6  13
BRANCH   5  18
ATOM     18  N   LIG d   1      -2.628  92.352 117.796  0.00  0.00     0.381 N 
ATOM     19  H   LIG d   1      -2.402  93.283 118.084  0.00  0.00    -0.090 HD
ATOM     20  H   LIG d   1      -2.073  92.128 116.989  0.00  0.00    -0.090 HD
ATOM     21  H   LIG d   1      -2.431  91.711 118.532  0.00  0.00    -0.090 HD
ENDBRANCH   5  18
BRANCH   3  22
ATOM     22  C   LIG d   1      -6.068  89.584 115.940  0.00  0.00     0.382 C 
ATOM     23  O   LIG d   1      -7.275  89.366 115.675  0.00  0.00    -0.241 OA
ATOM     24  O   LIG d   1      -5.189  88.863 115.431  0.00  0.00    -0.241 OA
ENDBRANCH   3  22
TORSDOF 7
ENDMDL
MODEL 2
REMARK VINA RESULT:      -4.7      2.092      4.125
REMARK  7 active torsions:
REMARK  status: ('A' for Active; 'I' for Inactive)
REMARK    1  A    between atoms: C_2  and  C_3 
REMARK    2  A    between atoms: C_3  and  O_6 
REMARK    3  A    between atoms: C_3  and  C_4 
REMARK    4  A    between atoms: C_7  and  O_6 
REMARK    5  A    between atoms: C_9  and  C_10 
REMARK    6  A    between atoms: N_15  and  C_14 
REMARK    7  A    between atoms: N_20  and  C_19 
REMARK       I    between atoms: C_22  and  N_20 
ROOT
ATOM      1  C   LIG d   1      -4.989  91.666 119.294  0.00  0.00     0.161 C 
ATOM      2  C   LIG d   1      -5.180  90.654 118.338  0.00  0.00     0.016 C 
ATOM      3  C   LIG d   1      -6.146  90.730 117.308  0.00  0.00     0.038 C 
ATOM      4  C   LIG d   1      -6.889  91.897 117.072  0.00  0.00     0.028 C 
ATOM      5  C   LIG d   1      -7.086  92.752 118.319  0.00  0.00    -0.047 C 
ATOM      6  C   LIG d   1      -5.712  92.993 118.985  0.00  0.00     0.091 C 
ENDROOT
BRANCH   1   7
ATOM      7  O   LIG d   1      -3.579  91.897 119.485  0.00  0.00    -0.368 OA
BRANCH   7   8
ATOM      8  C   LIG d   1      -2.789  92.050 118.280  0.00  0.00     0.119 C 
BRANCH   8   9
ATOM      9  C   LIG d   1      -1.623  91.047 118.360  0.00  0.00     0.028 C 
ATOM     10  C   LIG d   1      -1.504  90.394 119.748  0.00  0.00     0.006 C 
ENDBRANCH   8   9
BRANCH   8  11
ATOM     11  C   LIG d   1      -2.132  93.432 118.218  0.00  0.00     0.028 C 
ATOM     12  C   LIG d   1      -2.180  94.176 119.561  0.00  0.00     0.006 C 
ENDBRANCH   8  11
ENDBRANCH   7   8
ENDBRANCH   1   7
BRANCH   6  13
ATOM     13  N   LIG d   1      -5.825  93.751 120.259  0.00  0.00    -0.311 N 
ATOM     14  C   LIG d   1      -5.745  95.078 120.332  0.00  0.00     0.210 C 
ATOM     15  C   LIG d   1      -5.867  95.657 121.745  0.00  0.00     0.109 C 
ATOM     16  O   LIG d   1      -5.617  95.834 119.357  0.00  0.00    -0.276 OA
ATOM     17  H   LIG d   1      -5.962  93.218 121.096  0.00  0.00     0.149 HD
ENDBRANCH   6  13
BRANCH   5  18
ATOM     18  N   LIG d   1      -7.754  93.999 117.903  0.00  0.00     0.381 N 
ATOM     19  H   LIG d   1      -8.055  94.508 118.710  0.00  0.00    -0.090 HD
ATOM     20  H   LIG d   1      -8.565  93.767 117.357  0.00  0.00    -0.090 HD
ATOM     21  H   LIG d   1      -7.130  94.557 117.363  0.00  0.00    -0.090 HD
ENDBRANCH   5  18
BRANCH   3  22
ATOM     22  C   LIG d   1      -6.406  89.615 116.526  0.00  0.00     0.382 C 
ATOM     23  O   LIG d   1      -7.540  89.079 116.555  0.00  0.00    -0.241 OA
ATOM     24  O   LIG d   1      -5.507  89.112 115.825  0.00  0.00    -0.241 OA
ENDBRANCH   3  22
TORSDOF 7
ENDMDL
MODEL 3
REMARK VINA RESULT:      -4.7      2.253      4.856
REMARK  7 active torsions:
REMARK  status: ('A' for Active; 'I' for Inactive)
REMARK    1  A    between atoms: C_2  and  C_3 
REMARK    2  A    between atoms: C_3  and  O_6 
REMARK    3  A    between atoms: C_3  and  C_4 
REMARK    4  A    between atoms: C_7  and  O_6 
REMARK    5  A    between atoms: C_9  and  C_10 
REMARK    6  A    between atoms: N_15  and  C_14 
REMARK    7  A    between atoms: N_20  and  C_19 
REMARK       I    between atoms: C_22  and  N_20 
ROOT
ATOM      1  C   LIG d   1      -5.117  92.578 118.229  0.00  0.00     0.161 C 
ATOM      2  C   LIG d   1      -6.410  92.984 117.857  0.00  0.00     0.016 C 
ATOM      3  C   LIG d   1      -7.056  94.116 118.403  0.00  0.00     0.038 C 
ATOM      4  C   LIG d   1      -6.391  95.012 119.253  0.00  0.00     0.028 C 
ATOM      5  C   LIG d   1      -5.260  94.368 120.046  0.00  0.00    -0.047 C 
ATOM      6  C   LIG d   1      -4.334  93.605 119.071  0.00  0.00     0.091 C 
ENDROOT
BRANCH   1   7
ATOM      7  O   LIG d   1      -4.363  92.213 117.055  0.00  0.00    -0.368 OA
BRANCH   7   8
ATOM      8  C   LIG d   1      -4.122  90.797 116.868  0.00  0.00     0.119 C 
BRANCH   8   9
ATOM      9  C   LIG d   1      -5.118  90.294 115.805  0.00  0.00     0.028 C 
ATOM     10  C   LIG d   1      -6.384  89.683 116.430  0.00  0.00     0.006 C 
ENDBRANCH   8   9
BRANCH   8  11
ATOM     11  C   LIG d   1      -4.447  90.003 118.137  0.00  0.00     0.028 C 
ATOM     12  C   LIG d   1      -3.210  89.332 118.754  0.00  0.00     0.006 C 
ENDBRANCH   8  11
ENDBRANCH   7   8
ENDBRANCH   1   7
BRANCH   6  13
ATOM     13  N   LIG d   1      -3.247  92.875 119.775  0.00  0.00    -0.311 N 
ATOM     14  C   LIG d   1      -1.975  92.897 119.382  0.00  0.00     0.210 C 
ATOM     15  C   LIG d   1      -1.020  92.059 120.238  0.00  0.00     0.109 C 
ATOM     16  O   LIG d   1      -1.541  93.556 118.425  0.00  0.00    -0.276 OA
ATOM     17  H   LIG d   1      -3.505  92.340 120.581  0.00  0.00     0.149 HD
ENDBRANCH   6  13
BRANCH   5  18
ATOM     18  N   LIG d   1      -4.566  95.440 120.784  0.00  0.00     0.381 N 
ATOM     19  H   LIG d   1      -4.134  96.071 120.139  0.00  0.00    -0.090 HD
ATOM     20  H   LIG d   1      -3.846  95.030 121.354  0.00  0.00    -0.090 HD
ATOM     21  H   LIG d   1      -5.213  95.933 121.359  0.00  0.00    -0.090 HD
ENDBRANCH   5  18
BRANCH   3  22
ATOM     22  C   LIG d   1      -8.397  94.340 118.130  0.00  0.00     0.382 C 
ATOM     23  O   LIG d   1      -9.163  94.744 119.038  0.00  0.00    -0.241 OA
ATOM     24  O   LIG d   1      -8.861  94.099 116.999  0.00  0.00    -0.241 OA
ENDBRANCH   3  22
TORSDOF 7
ENDMDL
MODEL 4
REMARK VINA RESULT:      -4.6      2.251      5.083
REMARK  7 active torsions:
REMARK  status: ('A' for Active; 'I' for Inactive)
REMARK    1  A    between atoms: C_2  and  C_3 
REMARK    2  A    between atoms: C_3  and  O_6 
REMARK    3  A    between atoms: C_3  and  C_4 
REMARK    4  A    between atoms: C_7  and  O_6 
REMARK    5  A    between atoms: C_9  and  C_10 
REMARK    6  A    between atoms: N_15  and  C_14 
REMARK    7  A    between atoms: N_20  and  C_19 
REMARK       I    between atoms: C_22  and  N_20 
ROOT
ATOM      1  C   LIG d   1      -5.202  92.313 118.570  0.00  0.00     0.161 C 
ATOM      2  C   LIG d   1      -6.473  92.706 118.120  0.00  0.00     0.016 C 
ATOM      3  C   LIG d   1      -7.059  93.953 118.435  0.00  0.00     0.038 C 
ATOM      4  C   LIG d   1      -6.346  94.960 119.103  0.00  0.00     0.028 C 
ATOM      5  C   LIG d   1      -5.247  94.422 120.013  0.00  0.00    -0.047 C 
ATOM      6  C   LIG d   1      -4.364  93.442 119.207  0.00  0.00     0.091 C 
ENDROOT
BRANCH   1   7
ATOM      7  O   LIG d   1      -4.471  91.694 117.493  0.00  0.00    -0.368 OA
BRANCH   7   8
ATOM      8  C   LIG d   1      -4.655  90.265 117.338  0.00  0.00     0.119 C 
BRANCH   8   9
ATOM      9  C   LIG d   1      -3.297  89.591 117.615  0.00  0.00     0.028 C 
ATOM     10  C   LIG d   1      -3.093  89.273 119.106  0.00  0.00     0.006 C 
ENDBRANCH   8   9
BRANCH   8  11
ATOM     11  C   LIG d   1      -5.000  89.901 115.891  0.00  0.00     0.028 C 
ATOM     12  C   LIG d   1      -6.514  89.799 115.647  0.00  0.00     0.006 C 
ENDBRANCH   8  11
ENDBRANCH   7   8
ENDBRANCH   1   7
BRANCH   6  13
ATOM     13  N   LIG d   1      -3.314  92.805 120.044  0.00  0.00    -0.311 N 
ATOM     14  C   LIG d   1      -2.019  92.819 119.732  0.00  0.00     0.210 C 
ATOM     15  C   LIG d   1      -1.108  92.086 120.722  0.00  0.00     0.109 C 
ATOM     16  O   LIG d   1      -1.535  93.396 118.747  0.00  0.00    -0.276 OA
ATOM     17  H   LIG d   1      -3.615  92.342 120.879  0.00  0.00     0.149 HD
ENDBRANCH   6  13
BRANCH   5  18
ATOM     18  N   LIG d   1      -4.496  95.579 120.537  0.00  0.00     0.381 N 
ATOM     19  H   LIG d   1      -3.621  95.660 120.059  0.00  0.00    -0.090 HD
ATOM     20  H   LIG d   1      -4.310  95.430 121.513  0.00  0.00    -0.090 HD
ATOM     21  H   LIG d   1      -5.027  96.413 120.416  0.00  0.00    -0.090 HD
ENDBRANCH   5  18
BRANCH   3  22
ATOM     22  C   LIG d   1      -8.388  94.188 118.116  0.00  0.00     0.382 C 
ATOM     23  O   LIG d   1      -9.187  94.573 119.004  0.00  0.00    -0.241 OA
ATOM     24  O   LIG d   1      -8.808  93.978 116.963  0.00  0.00    -0.241 OA
ENDBRANCH   3  22
TORSDOF 7
ENDMDL
MODEL 5
REMARK VINA RESULT:      -4.5      2.309      2.904
REMARK  7 active torsions:
REMARK  status: ('A' for Active; 'I' for Inactive)
REMARK    1  A    between atoms: C_2  and  C_3 
REMARK    2  A    between atoms: C_3  and  O_6 
REMARK    3  A    between atoms: C_3  and  C_4 
REMARK    4  A    between atoms: C_7  and  O_6 
REMARK    5  A    between atoms: C_9  and  C_10 
REMARK    6  A    between atoms: N_15  and  C_14 
REMARK    7  A    between atoms: N_20  and  C_19 
REMARK       I    between atoms: C_22  and  N_20 
ROOT
ATOM      1  C   LIG d   1      -3.967  92.670 118.029  0.00  0.00     0.161 C 
ATOM      2  C   LIG d   1      -5.146  92.100 117.520  0.00  0.00     0.016 C 
ATOM      3  C   LIG d   1      -5.262  90.735 117.170  0.00  0.00     0.038 C 
ATOM      4  C   LIG d   1      -4.246  89.809 117.450  0.00  0.00     0.028 C 
ATOM      5  C   LIG d   1      -2.855  90.432 117.498  0.00  0.00    -0.047 C 
ATOM      6  C   LIG d   1      -2.884  91.653 118.445  0.00  0.00     0.091 C 
ENDROOT
BRANCH   1   7
ATOM      7  O   LIG d   1      -4.283  93.544 119.131  0.00  0.00    -0.368 OA
BRANCH   7   8
ATOM      8  C   LIG d   1      -5.682  93.621 119.502  0.00  0.00     0.119 C 
BRANCH   8   9
ATOM      9  C   LIG d   1      -6.091  95.106 119.459  0.00  0.00     0.028 C 
ATOM     10  C   LIG d   1      -7.410  95.330 118.701  0.00  0.00     0.006 C 
ENDBRANCH   8   9
BRANCH   8  11
ATOM     11  C   LIG d   1      -5.899  93.183 120.953  0.00  0.00     0.028 C 
ATOM     12  C   LIG d   1      -6.110  91.667 121.093  0.00  0.00     0.006 C 
ENDBRANCH   8  11
ENDBRANCH   7   8
ENDBRANCH   1   7
BRANCH   6  13
ATOM     13  N   LIG d   1      -1.584  92.371 118.485  0.00  0.00    -0.311 N 
ATOM     14  C   LIG d   1      -0.645  92.138 119.400  0.00  0.00     0.210 C 
ATOM     15  C   LIG d   1       0.613  93.003 119.271  0.00  0.00     0.109 C 
ATOM     16  O   LIG d   1      -0.721  91.274 120.287  0.00  0.00    -0.276 OA
ATOM     17  H   LIG d   1      -1.426  93.067 117.782  0.00  0.00     0.149 HD
ENDBRANCH   6  13
BRANCH   5  18
ATOM     18  N   LIG d   1      -1.912  89.384 117.933  0.00  0.00     0.381 N 
ATOM     19  H   LIG d   1      -1.085  89.419 117.372  0.00  0.00    -0.090 HD
ATOM     20  H   LIG d   1      -2.343  88.485 117.804  0.00  0.00    -0.090 HD
ATOM     21  H   LIG d   1      -1.678  89.514 118.893  0.00  0.00    -0.090 HD
ENDBRANCH   5  18
BRANCH   3  22
ATOM     22  C   LIG d   1      -6.390  90.292 116.496  0.00  0.00     0.382 C 
ATOM     23  O   LIG d   1      -7.017  91.074 115.742  0.00  0.00    -0.241 OA
ATOM     24  O   LIG d   1      -6.814  89.134 116.668  0.00  0.00    -0.241 OA
ENDBRANCH   3  22
TORSDOF 7
ENDMDL
MODEL 6
REMARK VINA RESULT:      -4.5      2.928      5.291
REMARK  7 active torsions:
REMARK  status: ('A' for Active; 'I' for Inactive)
REMARK    1  A    between atoms: C_2  and  C_3 
REMARK    2  A    between atoms: C_3  and  O_6 
REMARK    3  A    between atoms: C_3  and  C_4 
REMARK    4  A    between atoms: C_7  and  O_6 
REMARK    5  A    between atoms: C_9  and  C_10 
REMARK    6  A    between atoms: N_15  and  C_14 
REMARK    7  A    between atoms: N_20  and  C_19 
REMARK       I    between atoms: C_22  and  N_20 
ROOT
ATOM      1  C   LIG d   1      -3.412  92.365 118.123  0.00  0.00     0.161 C 
ATOM      2  C   LIG d   1      -4.713  92.890 118.056  0.00  0.00     0.016 C 
ATOM      3  C   LIG d   1      -5.788  92.229 117.417  0.00  0.00     0.038 C 
ATOM      4  C   LIG d   1      -5.668  90.919 116.931  0.00  0.00     0.028 C 
ATOM      5  C   LIG d   1      -4.244  90.550 116.527  0.00  0.00    -0.047 C 
ATOM      6  C   LIG d   1      -3.288  90.887 117.695  0.00  0.00     0.091 C 
ENDROOT
BRANCH   1   7
ATOM      7  O   LIG d   1      -2.879  92.548 119.449  0.00  0.00    -0.368 OA
BRANCH   7   8
ATOM      8  C   LIG d   1      -1.820  93.529 119.580  0.00  0.00     0.119 C 
BRANCH   8   9
ATOM      9  C   LIG d   1      -0.670  92.867 120.364  0.00  0.00     0.028 C 
ATOM     10  C   LIG d   1       0.686  93.016 119.654  0.00  0.00     0.006 C 
ENDBRANCH   8   9
BRANCH   8  11
ATOM     11  C   LIG d   1      -2.265  94.717 120.438  0.00  0.00     0.028 C 
ATOM     12  C   LIG d   1      -2.626  95.955 119.601  0.00  0.00     0.006 C 
ENDBRANCH   8  11
ENDBRANCH   7   8
ENDBRANCH   1   7
BRANCH   6  13
ATOM     13  N   LIG d   1      -1.864  90.636 117.352  0.00  0.00    -0.311 N 
ATOM     14  C   LIG d   1      -1.036  89.939 118.128  0.00  0.00     0.210 C 
ATOM     15  C   LIG d   1       0.396  89.816 117.598  0.00  0.00     0.109 C 
ATOM     16  O   LIG d   1      -1.359  89.384 119.189  0.00  0.00    -0.276 OA
ATOM     17  H   LIG d   1      -1.526  91.024 116.493  0.00  0.00     0.149 HD
ENDBRANCH   6  13
BRANCH   5  18
ATOM     18  N   LIG d   1      -4.238  89.119 116.170  0.00  0.00     0.381 N 
ATOM     19  H   LIG d   1      -3.559  88.635 116.722  0.00  0.00    -0.090 HD
ATOM     20  H   LIG d   1      -3.982  89.027 115.203  0.00  0.00    -0.090 HD
ATOM     21  H   LIG d   1      -5.141  88.726 116.321  0.00  0.00    -0.090 HD
ENDBRANCH   5  18
BRANCH   3  22
ATOM     22  C   LIG d   1      -6.988  92.895 117.225  0.00  0.00     0.382 C 
ATOM     23  O   LIG d   1      -7.551  93.463 118.192  0.00  0.00    -0.241 OA
ATOM     24  O   LIG d   1      -7.537  92.898 116.107  0.00  0.00    -0.241 OA
ENDBRANCH   3  22
TORSDOF 7
ENDMDL
MODEL 7
REMARK VINA RESULT:      -4.5      2.681      5.093
REMARK  7 active torsions:
REMARK  status: ('A' for Active; 'I' for Inactive)
REMARK    1  A    between atoms: C_2  and  C_3 
REMARK    2  A    between atoms: C_3  and  O_6 
REMARK    3  A    between atoms: C_3  and  C_4 
REMARK    4  A    between atoms: C_7  and  O_6 
REMARK    5  A    between atoms: C_9  and  C_10 
REMARK    6  A    between atoms: N_15  and  C_14 
REMARK    7  A    between atoms: N_20  and  C_19 
REMARK       I    between atoms: C_22  and  N_20 
ROOT
ATOM      1  C   LIG d   1      -3.501  91.294 118.288  0.00  0.00     0.161 C 
ATOM      2  C   LIG d   1      -4.216  90.549 117.335  0.00  0.00     0.016 C 
ATOM      3  C   LIG d   1      -5.429  90.987 116.756  0.00  0.00     0.038 C 
ATOM      4  C   LIG d   1      -5.935  92.276 116.979  0.00  0.00     0.028 C 
ATOM      5  C   LIG d   1      -5.514  92.868 118.320  0.00  0.00    -0.047 C 
ATOM      6  C   LIG d   1      -3.979  92.751 118.461  0.00  0.00     0.091 C 
ENDROOT
BRANCH   1   7
ATOM      7  O   LIG d   1      -2.094  91.262 117.978  0.00  0.00    -0.368 OA
BRANCH   7   8
ATOM      8  C   LIG d   1      -1.276  90.411 118.817  0.00  0.00     0.119 C 
BRANCH   8   9
ATOM      9  C   LIG d   1      -0.234  91.310 119.511  0.00  0.00     0.028 C 
ATOM     10  C   LIG d   1       0.396  92.330 118.548  0.00  0.00     0.006 C 
ENDBRANCH   8   9
BRANCH   8  11
ATOM     11  C   LIG d   1      -0.462  89.419 117.980  0.00  0.00     0.028 C 
ATOM     12  C   LIG d   1      -1.029  87.991 118.032  0.00  0.00     0.006 C 
ENDBRANCH   8  11
ENDBRANCH   7   8
ENDBRANCH   1   7
BRANCH   6  13
ATOM     13  N   LIG d   1      -3.493  93.231 119.781  0.00  0.00    -0.311 N 
ATOM     14  C   LIG d   1      -2.595  94.204 119.922  0.00  0.00     0.210 C 
ATOM     15  C   LIG d   1      -2.216  94.530 121.370  0.00  0.00     0.109 C 
ATOM     16  O   LIG d   1      -2.099  94.850 118.986  0.00  0.00    -0.276 OA
ATOM     17  H   LIG d   1      -3.866  92.782 120.595  0.00  0.00     0.149 HD
ENDBRANCH   6  13
BRANCH   5  18
ATOM     18  N   LIG d   1      -5.994  94.262 118.362  0.00  0.00     0.381 N 
ATOM     19  H   LIG d   1      -5.246  94.870 118.630  0.00  0.00    -0.090 HD
ATOM     20  H   LIG d   1      -6.721  94.335 119.052  0.00  0.00    -0.090 HD
ATOM     21  H   LIG d   1      -6.345  94.529 117.469  0.00  0.00    -0.090 HD
ENDBRANCH   5  18
BRANCH   3  22
ATOM     22  C   LIG d   1      -6.171  90.115 115.973  0.00  0.00     0.382 C 
ATOM     23  O   LIG d   1      -5.757  88.948 115.771  0.00  0.00    -0.241 OA
ATOM     24  O   LIG d   1      -7.226  90.495 115.430  0.00  0.00    -0.241 OA
ENDBRANCH   3  22
TORSDOF 7
ENDMDL
MODEL 8
REMARK VINA RESULT:      -4.5      2.332      4.108
REMARK  7 active torsions:
REMARK  status: ('A' for Active; 'I' for Inactive)
REMARK    1  A    between atoms: C_2  and  C_3 
REMARK    2  A    between atoms: C_3  and  O_6 
REMARK    3  A    between atoms: C_3  and  C_4 
REMARK    4  A    between atoms: C_7  and  O_6 
REMARK    5  A    between atoms: C_9  and  C_10 
REMARK    6  A    between atoms: N_15  and  C_14 
REMARK    7  A    between atoms: N_20  and  C_19 
REMARK       I    between atoms: C_22  and  N_20 
ROOT
ATOM      1  C   LIG d   1      -4.800  91.625 119.959  0.00  0.00     0.161 C 
ATOM      2  C   LIG d   1      -3.694  90.859 119.554  0.00  0.00     0.016 C 
ATOM      3  C   LIG d   1      -3.644  90.149 118.333  0.00  0.00     0.038 C 
ATOM      4  C   LIG d   1      -4.644  90.280 117.358  0.00  0.00     0.028 C 
ATOM      5  C   LIG d   1      -6.009  90.640 117.934  0.00  0.00    -0.047 C 
ATOM      6  C   LIG d   1      -5.855  91.869 118.859  0.00  0.00     0.091 C 
ENDROOT
BRANCH   1   7
ATOM      7  O   LIG d   1      -4.352  92.878 120.511  0.00  0.00    -0.368 OA
BRANCH   7   8
ATOM      8  C   LIG d   1      -4.092  93.938 119.557  0.00  0.00     0.119 C 
BRANCH   8   9
ATOM      9  C   LIG d   1      -2.597  94.296 119.658  0.00  0.00     0.028 C 
ATOM     10  C   LIG d   1      -1.805  93.869 118.411  0.00  0.00     0.006 C 
ENDBRANCH   8   9
BRANCH   8  11
ATOM     11  C   LIG d   1      -4.843  95.220 119.930  0.00  0.00     0.028 C 
ATOM     12  C   LIG d   1      -5.606  95.098 121.258  0.00  0.00     0.006 C 
ENDBRANCH   8  11
ENDBRANCH   7   8
ENDBRANCH   1   7
BRANCH   6  13
ATOM     13  N   LIG d   1      -7.129  92.236 119.531  0.00  0.00    -0.311 N 
ATOM     14  C   LIG d   1      -7.956  93.173 119.072  0.00  0.00     0.210 C 
ATOM     15  C   LIG d   1      -9.205  93.409 119.928  0.00  0.00     0.109 C 
ATOM     16  O   LIG d   1      -7.791  93.809 118.020  0.00  0.00    -0.276 OA
ATOM     17  H   LIG d   1      -7.357  91.747 120.375  0.00  0.00     0.149 HD
ENDBRANCH   6  13
BRANCH   5  18
ATOM     18  N   LIG d   1      -6.923  90.880 116.801  0.00  0.00     0.381 N 
ATOM     19  H   LIG d   1      -6.647  91.710 116.314  0.00  0.00    -0.090 HD
ATOM     20  H   LIG d   1      -7.853  91.017 117.157  0.00  0.00    -0.090 HD
ATOM     21  H   LIG d   1      -6.908  90.101 116.180  0.00  0.00    -0.090 HD
ENDBRANCH   5  18
BRANCH   3  22
ATOM     22  C   LIG d   1      -2.603  89.266 118.093  0.00  0.00     0.382 C 
ATOM     23  O   LIG d   1      -1.423  89.688 118.037  0.00  0.00    -0.241 OA
ATOM     24  O   LIG d   1      -2.833  88.059 117.889  0.00  0.00    -0.241 OA
ENDBRANCH   3  22
TORSDOF 7
ENDMDL
MODEL 9
REMARK VINA RESULT:      -4.4      3.121      5.601
REMARK  7 active torsions:
REMARK  status: ('A' for Active; 'I' for Inactive)
REMARK    1  A    between atoms: C_2  and  C_3 
REMARK    2  A    between atoms: C_3  and  O_6 
REMARK    3  A    between atoms: C_3  and  C_4 
REMARK    4  A    between atoms: C_7  and  O_6 
REMARK    5  A    between atoms: C_9  and  C_10 
REMARK    6  A    between atoms: N_15  and  C_14 
REMARK    7  A    between atoms: N_20  and  C_19 
REMARK       I    between atoms: C_22  and  N_20 
ROOT
ATOM      1  C   LIG d   1      -3.263  90.687 118.321  0.00  0.00     0.161 C 
ATOM      2  C   LIG d   1      -4.255  90.202 117.452  0.00  0.00     0.016 C 
ATOM      3  C   LIG d   1      -5.377  90.962 117.049  0.00  0.00     0.038 C 
ATOM      4  C   LIG d   1      -5.505  92.322 117.371  0.00  0.00     0.028 C 
ATOM      5  C   LIG d   1      -4.787  92.710 118.659  0.00  0.00    -0.047 C 
ATOM      6  C   LIG d   1      -3.328  92.205 118.592  0.00  0.00     0.091 C 
ENDROOT
BRANCH   1   7
ATOM      7  O   LIG d   1      -1.960  90.321 117.826  0.00  0.00    -0.368 OA
BRANCH   7   8
ATOM      8  C   LIG d   1      -1.216  89.373 118.630  0.00  0.00     0.119 C 
BRANCH   8   9
ATOM      9  C   LIG d   1       0.258  89.822 118.630  0.00  0.00     0.028 C 
ATOM     10  C   LIG d   1       0.849  89.895 117.212  0.00  0.00     0.006 C 
ENDBRANCH   8   9
BRANCH   8  11
ATOM     11  C   LIG d   1      -1.216  87.981 117.993  0.00  0.00     0.028 C 
ATOM     12  C   LIG d   1      -1.027  86.854 119.021  0.00  0.00     0.006 C 
ENDBRANCH   8  11
ENDBRANCH   7   8
ENDBRANCH   1   7
BRANCH   6  13
ATOM     13  N   LIG d   1      -2.579  92.469 119.848  0.00  0.00    -0.311 N 
ATOM     14  C   LIG d   1      -1.391  93.070 119.880  0.00  0.00     0.210 C 
ATOM     15  C   LIG d   1      -0.783  93.226 121.278  0.00  0.00     0.109 C 
ATOM     16  O   LIG d   1      -0.797  93.518 118.888  0.00  0.00    -0.276 OA
ATOM     17  H   LIG d   1      -3.002  92.166 120.704  0.00  0.00     0.149 HD
ENDBRANCH   6  13
BRANCH   5  18
ATOM     18  N   LIG d   1      -4.886  94.175 118.800  0.00  0.00     0.381 N 
ATOM     19  H   LIG d   1      -3.980  94.560 118.981  0.00  0.00    -0.090 HD
ATOM     20  H   LIG d   1      -5.481  94.387 119.581  0.00  0.00    -0.090 HD
ATOM     21  H   LIG d   1      -5.263  94.573 117.968  0.00  0.00    -0.090 HD
ENDBRANCH   5  18
BRANCH   3  22
ATOM     22  C   LIG d   1      -6.406  90.351 116.350  0.00  0.00     0.382 C 
ATOM     23  O   LIG d   1      -6.701  89.155 116.586  0.00  0.00    -0.241 OA
ATOM     24  O   LIG d   1      -7.014  90.967 115.454  0.00  0.00    -0.241 OA
ENDBRANCH   3  22
TORSDOF 7
ENDMDL
