MODEL 1
REMARK VINA RESULT:      -5.1      0.000      0.000
REMARK  7 active torsions:
REMARK  status: ('A' for Active; 'I' for Inactive)
REMARK    1  A    between atoms: C_2  and  C_3 
REMARK    2  A    between atoms: C_3  and  O_6 
REMARK    3  A    between atoms: C_3  and  C_4 
REMARK    4  A    between atoms: C_7  and  O_6 
REMARK    5  A    between atoms: C_9  and  C_10 
REMARK    6  A    between atoms: N_15  and  C_14 
REMARK    7  A    between atoms: N_20  and  C_19 
REMARK       I    between atoms: C_22  and  N_20 
ROOT
ATOM      1  C   LIG d   1      -4.615  92.550 117.194  0.00  0.00     0.161 C 
ATOM      2  C   LIG d   1      -5.673  91.744 116.743  0.00  0.00     0.016 C 
ATOM      3  C   LIG d   1      -5.551  90.354 116.515  0.00  0.00     0.038 C 
ATOM      4  C   LIG d   1      -4.394  89.644 116.870  0.00  0.00     0.028 C 
ATOM      5  C   LIG d   1      -3.131  90.498 116.855  0.00  0.00    -0.047 C 
ATOM      6  C   LIG d   1      -3.378  91.774 117.692  0.00  0.00     0.091 C 
ENDROOT
BRANCH   1   7
ATOM      7  O   LIG d   1      -5.087  93.450 118.217  0.00  0.00    -0.368 OA
BRANCH   7   8
ATOM      8  C   LIG d   1      -6.523  93.516 118.394  0.00  0.00     0.119 C 
BRANCH   8   9
ATOM      9  C   LIG d   1      -6.964  94.957 118.071  0.00  0.00     0.028 C 
ATOM     10  C   LIG d   1      -8.407  95.243 118.517  0.00  0.00     0.006 C 
ENDBRANCH   8   9
BRANCH   8  11
ATOM     11  C   LIG d   1      -6.915  93.291 119.857  0.00  0.00     0.028 C 
ATOM     12  C   LIG d   1      -6.426  91.940 120.404  0.00  0.00     0.006 C 
ENDBRANCH   8  11
ENDBRANCH   7   8
ENDBRANCH   1   7
BRANCH   6  13
ATOM     13  N   LIG d   1      -2.220  92.706 117.660  0.00  0.00    -0.311 N 
ATOM     14  C   LIG d   1      -1.657  93.213 118.756  0.00  0.00     0.210 C 
ATOM     15  C   LIG d   1      -0.488  94.169 118.499  0.00  0.00     0.109 C 
ATOM     16  O   LIG d   1      -1.995  92.937 119.917  0.00  0.00    -0.276 OA
ATOM     17  H   LIG d   1      -1.862  92.959 116.760  0.00  0.00     0.149 HD
ENDBRANCH   6  13
BRANCH   5  18
ATOM     18  N   LIG d   1      -2.026  89.670 117.375  0.00  0.00     0.381 N 
ATOM     19  H   LIG d   1      -1.693  90.053 118.237  0.00  0.00    -0.090 HD
ATOM     20  H   LIG d   1      -1.271  89.681 116.712  0.00  0.00    -0.090 HD
ATOM     21  H   LIG d   1      -2.339  88.735 117.518  0.00  0.00    -0.090 HD
ENDBRANCH   5  18
BRANCH   3  22
ATOM     22  C   LIG d   1      -6.580  89.667 115.890  0.00  0.00     0.382 C 
ATOM     23  O   LIG d   1      -7.573  90.292 115.448  0.00  0.00    -0.241 OA
ATOM     24  O   LIG d   1      -6.547  88.425 115.801  0.00  0.00    -0.241 OA
ENDBRANCH   3  22
TORSDOF 7
ENDMDL
MODEL 2
REMARK VINA RESULT:      -4.8      0.987      1.371
REMARK  7 active torsions:
REMARK  status: ('A' for Active; 'I' for Inactive)
REMARK    1  A    between atoms: C_2  and  C_3 
REMARK    2  A    between atoms: C_3  and  O_6 
REMARK    3  A    between atoms: C_3  and  C_4 
REMARK    4  A    between atoms: C_7  and  O_6 
REMARK    5  A    between atoms: C_9  and  C_10 
REMARK    6  A    between atoms: N_15  and  C_14 
REMARK    7  A    between atoms: N_20  and  C_19 
REMARK       I    between atoms: C_22  and  N_20 
ROOT
ATOM      1  C   LIG d   1      -4.948  92.689 117.219  0.00  0.00     0.161 C 
ATOM      2  C   LIG d   1      -5.844  91.709 116.762  0.00  0.00     0.016 C 
ATOM      3  C   LIG d   1      -5.516  90.337 116.667  0.00  0.00     0.038 C 
ATOM      4  C   LIG d   1      -4.309  89.827 117.169  0.00  0.00     0.028 C 
ATOM      5  C   LIG d   1      -3.176  90.848 117.175  0.00  0.00    -0.047 C 
ATOM      6  C   LIG d   1      -3.665  92.136 117.875  0.00  0.00     0.091 C 
ENDROOT
BRANCH   1   7
ATOM      7  O   LIG d   1      -5.624  93.588 118.120  0.00  0.00    -0.368 OA
BRANCH   7   8
ATOM      8  C   LIG d   1      -5.628  93.206 119.518  0.00  0.00     0.119 C 
BRANCH   8   9
ATOM      9  C   LIG d   1      -7.075  92.833 119.892  0.00  0.00     0.028 C 
ATOM     10  C   LIG d   1      -8.065  93.979 119.621  0.00  0.00     0.006 C 
ENDBRANCH   8   9
BRANCH   8  11
ATOM     11  C   LIG d   1      -5.268  94.391 120.420  0.00  0.00     0.028 C 
ATOM     12  C   LIG d   1      -4.736  95.599 119.632  0.00  0.00     0.006 C 
ENDBRANCH   8  11
ENDBRANCH   7   8
ENDBRANCH   1   7
BRANCH   6  13
ATOM     13  N   LIG d   1      -2.646  93.217 117.850  0.00  0.00    -0.311 N 
ATOM     14  C   LIG d   1      -1.804  93.454 118.855  0.00  0.00     0.210 C 
ATOM     15  C   LIG d   1      -0.846  94.629 118.632  0.00  0.00     0.109 C 
ATOM     16  O   LIG d   1      -1.738  92.783 119.896  0.00  0.00    -0.276 OA
ATOM     17  H   LIG d   1      -2.609  93.790 117.030  0.00  0.00     0.149 HD
ENDBRANCH   6  13
BRANCH   5  18
ATOM     18  N   LIG d   1      -2.020  90.227 117.849  0.00  0.00     0.381 N 
ATOM     19  H   LIG d   1      -1.814  90.722 118.693  0.00  0.00    -0.090 HD
ATOM     20  H   LIG d   1      -1.220  90.288 117.244  0.00  0.00    -0.090 HD
ATOM     21  H   LIG d   1      -2.218  89.272 118.054  0.00  0.00    -0.090 HD
ENDBRANCH   5  18
BRANCH   3  22
ATOM     22  C   LIG d   1      -6.384  89.465 116.027  0.00  0.00     0.382 C 
ATOM     23  O   LIG d   1      -7.591  89.775 115.883  0.00  0.00    -0.241 OA
ATOM     24  O   LIG d   1      -5.985  88.353 115.633  0.00  0.00    -0.241 OA
ENDBRANCH   3  22
TORSDOF 7
ENDMDL
MODEL 3
REMARK VINA RESULT:      -4.8      2.165      4.600
REMARK  7 active torsions:
REMARK  status: ('A' for Active; 'I' for Inactive)
REMARK    1  A    between atoms: C_2  and  C_3 
REMARK    2  A    between atoms: C_3  and  O_6 
REMARK    3  A    between atoms: C_3  and  C_4 
REMARK    4  A    between atoms: C_7  and  O_6 
REMARK    5  A    between atoms: C_9  and  C_10 
REMARK    6  A    between atoms: N_15  and  C_14 
REMARK    7  A    between atoms: N_20  and  C_19 
REMARK       I    between atoms: C_22  and  N_20 
ROOT
ATOM      1  C   LIG d   1      -3.561  90.840 117.718  0.00  0.00     0.161 C 
ATOM      2  C   LIG d   1      -4.438  90.013 116.996  0.00  0.00     0.016 C 
ATOM      3  C   LIG d   1      -5.679  90.456 116.483  0.00  0.00     0.038 C 
ATOM      4  C   LIG d   1      -6.060  91.805 116.525  0.00  0.00     0.028 C 
ATOM      5  C   LIG d   1      -5.438  92.574 117.686  0.00  0.00    -0.047 C 
ATOM      6  C   LIG d   1      -3.909  92.343 117.678  0.00  0.00     0.091 C 
ENDROOT
BRANCH   1   7
ATOM      7  O   LIG d   1      -2.208  90.628 117.268  0.00  0.00    -0.368 OA
BRANCH   7   8
ATOM      8  C   LIG d   1      -1.328  89.944 118.194  0.00  0.00     0.119 C 
BRANCH   8   9
ATOM      9  C   LIG d   1      -0.019  90.753 118.271  0.00  0.00     0.028 C 
ATOM     10  C   LIG d   1       0.823  90.631 116.990  0.00  0.00     0.006 C 
ENDBRANCH   8   9
BRANCH   8  11
ATOM     11  C   LIG d   1      -0.923  88.566 117.663  0.00  0.00     0.028 C 
ATOM     12  C   LIG d   1      -1.924  87.463 118.042  0.00  0.00     0.006 C 
ENDBRANCH   8  11
ENDBRANCH   7   8
ENDBRANCH   1   7
BRANCH   6  13
ATOM     13  N   LIG d   1      -3.232  92.992 118.831  0.00  0.00    -0.311 N 
ATOM     14  C   LIG d   1      -2.125  93.723 118.714  0.00  0.00     0.210 C 
ATOM     15  C   LIG d   1      -1.579  94.285 120.031  0.00  0.00     0.109 C 
ATOM     16  O   LIG d   1      -1.561  93.987 117.641  0.00  0.00    -0.276 OA
ATOM     17  H   LIG d   1      -3.640  92.856 119.735  0.00  0.00     0.149 HD
ENDBRANCH   6  13
BRANCH   5  18
ATOM     18  N   LIG d   1      -5.809  93.993 117.530  0.00  0.00     0.381 N 
ATOM     19  H   LIG d   1      -6.100  94.166 116.589  0.00  0.00    -0.090 HD
ATOM     20  H   LIG d   1      -5.003  94.563 117.720  0.00  0.00    -0.090 HD
ATOM     21  H   LIG d   1      -6.544  94.225 118.161  0.00  0.00    -0.090 HD
ENDBRANCH   5  18
BRANCH   3  22
ATOM     22  C   LIG d   1      -6.571  89.536 115.953  0.00  0.00     0.382 C 
ATOM     23  O   LIG d   1      -6.186  88.372 115.686  0.00  0.00    -0.241 OA
ATOM     24  O   LIG d   1      -7.744  89.868 115.697  0.00  0.00    -0.241 OA
ENDBRANCH   3  22
TORSDOF 7
ENDMDL
MODEL 4
REMARK VINA RESULT:      -4.6      2.406      4.734
REMARK  7 active torsions:
REMARK  status: ('A' for Active; 'I' for Inactive)
REMARK    1  A    between atoms: C_2  and  C_3 
REMARK    2  A    between atoms: C_3  and  O_6 
REMARK    3  A    between atoms: C_3  and  C_4 
REMARK    4  A    between atoms: C_7  and  O_6 
REMARK    5  A    between atoms: C_9  and  C_10 
REMARK    6  A    between atoms: N_15  and  C_14 
REMARK    7  A    between atoms: N_20  and  C_19 
REMARK       I    between atoms: C_22  and  N_20 
ROOT
ATOM      1  C   LIG d   1      -3.415  92.346 118.249  0.00  0.00     0.161 C 
ATOM      2  C   LIG d   1      -2.612  91.203 118.097  0.00  0.00     0.016 C 
ATOM      3  C   LIG d   1      -3.086  89.986 117.555  0.00  0.00     0.038 C 
ATOM      4  C   LIG d   1      -4.363  89.876 116.985  0.00  0.00     0.028 C 
ATOM      5  C   LIG d   1      -5.375  90.853 117.572  0.00  0.00    -0.047 C 
ATOM      6  C   LIG d   1      -4.779  92.279 117.530  0.00  0.00     0.091 C 
ENDROOT
BRANCH   1   7
ATOM      7  O   LIG d   1      -2.684  93.515 117.828  0.00  0.00    -0.368 OA
BRANCH   7   8
ATOM      8  C   LIG d   1      -2.115  94.326 118.886  0.00  0.00     0.119 C 
BRANCH   8   9
ATOM      9  C   LIG d   1      -2.843  95.684 118.871  0.00  0.00     0.028 C 
ATOM     10  C   LIG d   1      -1.917  96.850 119.257  0.00  0.00     0.006 C 
ENDBRANCH   8   9
BRANCH   8  11
ATOM     11  C   LIG d   1      -0.644  94.651 118.608  0.00  0.00     0.028 C 
ATOM     12  C   LIG d   1       0.300  93.493 118.968  0.00  0.00     0.006 C 
ENDBRANCH   8  11
ENDBRANCH   7   8
ENDBRANCH   1   7
BRANCH   6  13
ATOM     13  N   LIG d   1      -5.671  93.285 118.163  0.00  0.00    -0.311 N 
ATOM     14  C   LIG d   1      -6.601  93.964 117.493  0.00  0.00     0.210 C 
ATOM     15  C   LIG d   1      -7.398  94.968 118.332  0.00  0.00     0.109 C 
ATOM     16  O   LIG d   1      -6.864  93.806 116.292  0.00  0.00    -0.276 OA
ATOM     17  H   LIG d   1      -5.547  93.453 119.142  0.00  0.00     0.149 HD
ENDBRANCH   6  13
BRANCH   5  18
ATOM     18  N   LIG d   1      -6.622  90.725 116.794  0.00  0.00     0.381 N 
ATOM     19  H   LIG d   1      -7.098  91.604 116.770  0.00  0.00    -0.090 HD
ATOM     20  H   LIG d   1      -7.219  90.055 117.245  0.00  0.00    -0.090 HD
ATOM     21  H   LIG d   1      -6.416  90.426 115.866  0.00  0.00    -0.090 HD
ENDBRANCH   5  18
BRANCH   3  22
ATOM     22  C   LIG d   1      -2.292  88.851 117.617  0.00  0.00     0.382 C 
ATOM     23  O   LIG d   1      -1.049  88.962 117.752  0.00  0.00    -0.241 OA
ATOM     24  O   LIG d   1      -2.797  87.719 117.495  0.00  0.00    -0.241 OA
ENDBRANCH   3  22
TORSDOF 7
ENDMDL
MODEL 5
REMARK VINA RESULT:      -4.6      2.305      4.654
REMARK  7 active torsions:
REMARK  status: ('A' for Active; 'I' for Inactive)
REMARK    1  A    between atoms: C_2  and  C_3 
REMARK    2  A    between atoms: C_3  and  O_6 
REMARK    3  A    between atoms: C_3  and  C_4 
REMARK    4  A    between atoms: C_7  and  O_6 
REMARK    5  A    between atoms: C_9  and  C_10 
REMARK    6  A    between atoms: N_15  and  C_14 
REMARK    7  A    between atoms: N_20  and  C_19 
REMARK       I    between atoms: C_22  and  N_20 
ROOT
ATOM      1  C   LIG d   1      -3.230  90.644 117.769  0.00  0.00     0.161 C 
ATOM      2  C   LIG d   1      -4.142  89.864 117.038  0.00  0.00     0.016 C 
ATOM      3  C   LIG d   1      -5.375  90.358 116.555  0.00  0.00     0.038 C 
ATOM      4  C   LIG d   1      -5.715  91.716 116.641  0.00  0.00     0.028 C 
ATOM      5  C   LIG d   1      -5.053  92.433 117.813  0.00  0.00    -0.047 C 
ATOM      6  C   LIG d   1      -3.533  92.157 117.776  0.00  0.00     0.091 C 
ENDROOT
BRANCH   1   7
ATOM      7  O   LIG d   1      -1.890  90.403 117.293  0.00  0.00    -0.368 OA
BRANCH   7   8
ATOM      8  C   LIG d   1      -1.007  89.703 118.203  0.00  0.00     0.119 C 
BRANCH   8   9
ATOM      9  C   LIG d   1      -0.746  88.305 117.611  0.00  0.00     0.028 C 
ATOM     10  C   LIG d   1       0.652  88.186 116.981  0.00  0.00     0.006 C 
ENDBRANCH   8   9
BRANCH   8  11
ATOM     11  C   LIG d   1      -1.683  89.452 119.554  0.00  0.00     0.028 C 
ATOM     12  C   LIG d   1      -1.412  88.043 120.104  0.00  0.00     0.006 C 
ENDBRANCH   8  11
ENDBRANCH   7   8
ENDBRANCH   1   7
BRANCH   6  13
ATOM     13  N   LIG d   1      -2.820  92.752 118.936  0.00  0.00    -0.311 N 
ATOM     14  C   LIG d   1      -1.739  93.521 118.817  0.00  0.00     0.210 C 
ATOM     15  C   LIG d   1      -1.148  94.016 120.140  0.00  0.00     0.109 C 
ATOM     16  O   LIG d   1      -1.233  93.867 117.738  0.00  0.00    -0.276 OA
ATOM     17  H   LIG d   1      -3.182  92.548 119.847  0.00  0.00     0.149 HD
ENDBRANCH   6  13
BRANCH   5  18
ATOM     18  N   LIG d   1      -5.383  93.867 117.702  0.00  0.00     0.381 N 
ATOM     19  H   LIG d   1      -6.335  93.974 117.415  0.00  0.00    -0.090 HD
ATOM     20  H   LIG d   1      -4.794  94.282 117.001  0.00  0.00    -0.090 HD
ATOM     21  H   LIG d   1      -5.239  94.318 118.578  0.00  0.00    -0.090 HD
ENDBRANCH   5  18
BRANCH   3  22
ATOM     22  C   LIG d   1      -6.302  89.480 116.013  0.00  0.00     0.382 C 
ATOM     23  O   LIG d   1      -7.511  89.809 115.943  0.00  0.00    -0.241 OA
ATOM     24  O   LIG d   1      -5.952  88.346 115.634  0.00  0.00    -0.241 OA
ENDBRANCH   3  22
TORSDOF 7
ENDMDL
MODEL 6
REMARK VINA RESULT:      -4.5      2.226      4.616
REMARK  7 active torsions:
REMARK  status: ('A' for Active; 'I' for Inactive)
REMARK    1  A    between atoms: C_2  and  C_3 
REMARK    2  A    between atoms: C_3  and  O_6 
REMARK    3  A    between atoms: C_3  and  C_4 
REMARK    4  A    between atoms: C_7  and  O_6 
REMARK    5  A    between atoms: C_9  and  C_10 
REMARK    6  A    between atoms: N_15  and  C_14 
REMARK    7  A    between atoms: N_20  and  C_19 
REMARK       I    between atoms: C_22  and  N_20 
ROOT
ATOM      1  C   LIG d   1      -3.378  90.768 117.742  0.00  0.00     0.161 C 
ATOM      2  C   LIG d   1      -4.262  90.005 116.962  0.00  0.00     0.016 C 
ATOM      3  C   LIG d   1      -5.482  90.506 116.452  0.00  0.00     0.038 C 
ATOM      4  C   LIG d   1      -5.831  91.860 116.562  0.00  0.00     0.028 C 
ATOM      5  C   LIG d   1      -5.211  92.549 117.773  0.00  0.00    -0.047 C 
ATOM      6  C   LIG d   1      -3.689  92.279 117.779  0.00  0.00     0.091 C 
ENDROOT
BRANCH   1   7
ATOM      7  O   LIG d   1      -2.023  90.546 117.305  0.00  0.00    -0.368 OA
BRANCH   7   8
ATOM      8  C   LIG d   1      -1.280  89.531 118.024  0.00  0.00     0.119 C 
BRANCH   8   9
ATOM      9  C   LIG d   1      -0.856  90.138 119.375  0.00  0.00     0.028 C 
ATOM     10  C   LIG d   1      -1.626  89.531 120.559  0.00  0.00     0.006 C 
ENDBRANCH   8   9
BRANCH   8  11
ATOM     11  C   LIG d   1       0.028  89.185 117.306  0.00  0.00     0.028 C 
ATOM     12  C   LIG d   1       0.728  90.419 116.715  0.00  0.00     0.006 C 
ENDBRANCH   8  11
ENDBRANCH   7   8
ENDBRANCH   1   7
BRANCH   6  13
ATOM     13  N   LIG d   1      -3.017  92.847 118.977  0.00  0.00    -0.311 N 
ATOM     14  C   LIG d   1      -2.012  93.718 118.910  0.00  0.00     0.210 C 
ATOM     15  C   LIG d   1      -1.450  94.163 120.264  0.00  0.00     0.109 C 
ATOM     16  O   LIG d   1      -1.553  94.189 117.859  0.00  0.00    -0.276 OA
ATOM     17  H   LIG d   1      -3.347  92.543 119.872  0.00  0.00     0.149 HD
ENDBRANCH   6  13
BRANCH   5  18
ATOM     18  N   LIG d   1      -5.544  93.984 117.689  0.00  0.00     0.381 N 
ATOM     19  H   LIG d   1      -5.151  94.469 118.471  0.00  0.00    -0.090 HD
ATOM     20  H   LIG d   1      -6.542  94.088 117.722  0.00  0.00    -0.090 HD
ATOM     21  H   LIG d   1      -5.190  94.367 116.840  0.00  0.00    -0.090 HD
ENDBRANCH   5  18
BRANCH   3  22
ATOM     22  C   LIG d   1      -6.387  89.639 115.858  0.00  0.00     0.382 C 
ATOM     23  O   LIG d   1      -6.089  88.430 115.706  0.00  0.00    -0.241 OA
ATOM     24  O   LIG d   1      -7.478  90.061 115.431  0.00  0.00    -0.241 OA
ENDBRANCH   3  22
TORSDOF 7
ENDMDL
MODEL 7
REMARK VINA RESULT:      -4.5      2.108      4.660
REMARK  7 active torsions:
REMARK  status: ('A' for Active; 'I' for Inactive)
REMARK    1  A    between atoms: C_2  and  C_3 
REMARK    2  A    between atoms: C_3  and  O_6 
REMARK    3  A    between atoms: C_3  and  C_4 
REMARK    4  A    between atoms: C_7  and  O_6 
REMARK    5  A    between atoms: C_9  and  C_10 
REMARK    6  A    between atoms: N_15  and  C_14 
REMARK    7  A    between atoms: N_20  and  C_19 
REMARK       I    between atoms: C_22  and  N_20 
ROOT
ATOM      1  C   LIG d   1      -4.339  91.885 118.328  0.00  0.00     0.161 C 
ATOM      2  C   LIG d   1      -4.038  90.623 117.791  0.00  0.00     0.016 C 
ATOM      3  C   LIG d   1      -4.563  90.154 116.565  0.00  0.00     0.038 C 
ATOM      4  C   LIG d   1      -5.310  90.981 115.713  0.00  0.00     0.028 C 
ATOM      5  C   LIG d   1      -6.056  92.090 116.448  0.00  0.00    -0.047 C 
ATOM      6  C   LIG d   1      -5.063  92.844 117.360  0.00  0.00     0.091 C 
ENDROOT
BRANCH   1   7
ATOM      7  O   LIG d   1      -3.138  92.499 118.837  0.00  0.00    -0.368 OA
BRANCH   7   8
ATOM      8  C   LIG d   1      -2.006  92.528 117.933  0.00  0.00     0.119 C 
BRANCH   8   9
ATOM      9  C   LIG d   1      -0.824  91.844 118.649  0.00  0.00     0.028 C 
ATOM     10  C   LIG d   1      -0.347  90.579 117.916  0.00  0.00     0.006 C 
ENDBRANCH   8   9
BRANCH   8  11
ATOM     11  C   LIG d   1      -1.542  93.963 117.666  0.00  0.00     0.028 C 
ATOM     12  C   LIG d   1      -1.997  94.948 118.754  0.00  0.00     0.006 C 
ENDBRANCH   8  11
ENDBRANCH   7   8
ENDBRANCH   1   7
BRANCH   6  13
ATOM     13  N   LIG d   1      -5.728  93.892 118.179  0.00  0.00    -0.311 N 
ATOM     14  C   LIG d   1      -6.779  93.653 118.961  0.00  0.00     0.210 C 
ATOM     15  C   LIG d   1      -7.324  94.878 119.703  0.00  0.00     0.109 C 
ATOM     16  O   LIG d   1      -7.293  92.538 119.135  0.00  0.00    -0.276 OA
ATOM     17  H   LIG d   1      -5.356  94.820 118.121  0.00  0.00     0.149 HD
ENDBRANCH   6  13
BRANCH   5  18
ATOM     18  N   LIG d   1      -6.680  92.957 115.430  0.00  0.00     0.381 N 
ATOM     19  H   LIG d   1      -7.654  92.743 115.353  0.00  0.00    -0.090 HD
ATOM     20  H   LIG d   1      -6.246  92.779 114.541  0.00  0.00    -0.090 HD
ATOM     21  H   LIG d   1      -6.561  93.915 115.679  0.00  0.00    -0.090 HD
ENDBRANCH   5  18
BRANCH   3  22
ATOM     22  C   LIG d   1      -4.375  88.830 116.198  0.00  0.00     0.382 C 
ATOM     23  O   LIG d   1      -5.212  88.259 115.458  0.00  0.00    -0.241 OA
ATOM     24  O   LIG d   1      -3.402  88.185 116.635  0.00  0.00    -0.241 OA
ENDBRANCH   3  22
TORSDOF 7
ENDMDL
MODEL 8
REMARK VINA RESULT:      -4.4      2.091      4.294
REMARK  7 active torsions:
REMARK  status: ('A' for Active; 'I' for Inactive)
REMARK    1  A    between atoms: C_2  and  C_3 
REMARK    2  A    between atoms: C_3  and  O_6 
REMARK    3  A    between atoms: C_3  and  C_4 
REMARK    4  A    between atoms: C_7  and  O_6 
REMARK    5  A    between atoms: C_9  and  C_10 
REMARK    6  A    between atoms: N_15  and  C_14 
REMARK    7  A    between atoms: N_20  and  C_19 
REMARK       I    between atoms: C_22  and  N_20 
ROOT
ATOM      1  C   LIG d   1      -3.693  91.463 117.778  0.00  0.00     0.161 C 
ATOM      2  C   LIG d   1      -4.067  90.295 117.094  0.00  0.00     0.016 C 
ATOM      3  C   LIG d   1      -5.193  90.217 116.243  0.00  0.00     0.038 C 
ATOM      4  C   LIG d   1      -5.941  91.353 115.898  0.00  0.00     0.028 C 
ATOM      5  C   LIG d   1      -5.904  92.448 116.959  0.00  0.00    -0.047 C 
ATOM      6  C   LIG d   1      -4.432  92.741 117.327  0.00  0.00     0.091 C 
ENDROOT
BRANCH   1   7
ATOM      7  O   LIG d   1      -2.267  91.649 117.684  0.00  0.00    -0.368 OA
BRANCH   7   8
ATOM      8  C   LIG d   1      -1.483  91.136 118.789  0.00  0.00     0.119 C 
BRANCH   8   9
ATOM      9  C   LIG d   1      -2.419  91.024 120.008  0.00  0.00     0.028 C 
ATOM     10  C   LIG d   1      -1.762  90.284 121.186  0.00  0.00     0.006 C 
ENDBRANCH   8   9
BRANCH   8  11
ATOM     11  C   LIG d   1      -0.391  92.126 119.206  0.00  0.00     0.028 C 
ATOM     12  C   LIG d   1      -0.937  93.539 119.466  0.00  0.00     0.006 C 
ENDBRANCH   8  11
ENDBRANCH   7   8
ENDBRANCH   1   7
BRANCH   6  13
ATOM     13  N   LIG d   1      -4.309  93.741 118.420  0.00  0.00    -0.311 N 
ATOM     14  C   LIG d   1      -4.932  93.627 119.591  0.00  0.00     0.210 C 
ATOM     15  C   LIG d   1      -4.684  94.779 120.570  0.00  0.00     0.109 C 
ATOM     16  O   LIG d   1      -5.640  92.665 119.925  0.00  0.00    -0.276 OA
ATOM     17  H   LIG d   1      -3.728  94.537 118.246  0.00  0.00     0.149 HD
ENDBRANCH   6  13
BRANCH   5  18
ATOM     18  N   LIG d   1      -6.608  93.623 116.412  0.00  0.00     0.381 N 
ATOM     19  H   LIG d   1      -5.968  94.189 115.892  0.00  0.00    -0.090 HD
ATOM     20  H   LIG d   1      -6.967  94.171 117.174  0.00  0.00    -0.090 HD
ATOM     21  H   LIG d   1      -7.356  93.329 115.823  0.00  0.00    -0.090 HD
ENDBRANCH   5  18
BRANCH   3  22
ATOM     22  C   LIG d   1      -5.606  88.985 115.759  0.00  0.00     0.382 C 
ATOM     23  O   LIG d   1      -4.755  88.124 115.430  0.00  0.00    -0.241 OA
ATOM     24  O   LIG d   1      -6.818  88.740 115.606  0.00  0.00    -0.241 OA
ENDBRANCH   3  22
TORSDOF 7
ENDMDL
MODEL 9
REMARK VINA RESULT:      -4.2      2.111      4.304
REMARK  7 active torsions:
REMARK  status: ('A' for Active; 'I' for Inactive)
REMARK    1  A    between atoms: C_2  and  C_3 
REMARK    2  A    between atoms: C_3  and  O_6 
REMARK    3  A    between atoms: C_3  and  C_4 
REMARK    4  A    between atoms: C_7  and  O_6 
REMARK    5  A    between atoms: C_9  and  C_10 
REMARK    6  A    between atoms: N_15  and  C_14 
REMARK    7  A    between atoms: N_20  and  C_19 
REMARK       I    between atoms: C_22  and  N_20 
ROOT
ATOM      1  C   LIG d   1      -3.614  91.642 117.973  0.00  0.00     0.161 C 
ATOM      2  C   LIG d   1      -3.846  90.432 117.299  0.00  0.00     0.016 C 
ATOM      3  C   LIG d   1      -4.895  90.247 116.370  0.00  0.00     0.038 C 
ATOM      4  C   LIG d   1      -5.697  91.313 115.935  0.00  0.00     0.028 C 
ATOM      5  C   LIG d   1      -5.823  92.433 116.962  0.00  0.00    -0.047 C 
ATOM      6  C   LIG d   1      -4.409  92.847 117.430  0.00  0.00     0.091 C 
ENDROOT
BRANCH   1   7
ATOM      7  O   LIG d   1      -2.203  91.935 117.980  0.00  0.00    -0.368 OA
BRANCH   7   8
ATOM      8  C   LIG d   1      -1.531  91.805 119.257  0.00  0.00     0.119 C 
BRANCH   8   9
ATOM      9  C   LIG d   1      -0.524  92.965 119.371  0.00  0.00     0.028 C 
ATOM     10  C   LIG d   1      -0.891  93.953 120.491  0.00  0.00     0.006 C 
ENDBRANCH   8   9
BRANCH   8  11
ATOM     11  C   LIG d   1      -0.687  90.528 119.315  0.00  0.00     0.028 C 
ATOM     12  C   LIG d   1      -1.239  89.493 120.308  0.00  0.00     0.006 C 
ENDBRANCH   8  11
ENDBRANCH   7   8
ENDBRANCH   1   7
BRANCH   6  13
ATOM     13  N   LIG d   1      -4.445  93.881 118.497  0.00  0.00    -0.311 N 
ATOM     14  C   LIG d   1      -5.342  93.886 119.482  0.00  0.00     0.210 C 
ATOM     15  C   LIG d   1      -5.214  95.053 120.467  0.00  0.00     0.109 C 
ATOM     16  O   LIG d   1      -6.212  93.018 119.652  0.00  0.00    -0.276 OA
ATOM     17  H   LIG d   1      -3.756  94.606 118.454  0.00  0.00     0.149 HD
ENDBRANCH   6  13
BRANCH   5  18
ATOM     18  N   LIG d   1      -6.569  93.537 116.329  0.00  0.00     0.381 N 
ATOM     19  H   LIG d   1      -7.286  93.860 116.947  0.00  0.00    -0.090 HD
ATOM     20  H   LIG d   1      -7.007  93.194 115.491  0.00  0.00    -0.090 HD
ATOM     21  H   LIG d   1      -5.949  94.284 116.107  0.00  0.00    -0.090 HD
ENDBRANCH   5  18
BRANCH   3  22
ATOM     22  C   LIG d   1      -5.176  88.975 115.894  0.00  0.00     0.382 C 
ATOM     23  O   LIG d   1      -6.365  88.581 115.822  0.00  0.00    -0.241 OA
ATOM     24  O   LIG d   1      -4.253  88.200 115.579  0.00  0.00    -0.241 OA
ENDBRANCH   3  22
TORSDOF 7
ENDMDL
