MODEL 1
REMARK VINA RESULT:      -5.3      0.000      0.000
REMARK  7 active torsions:
REMARK  status: ('A' for Active; 'I' for Inactive)
REMARK    1  A    between atoms: C_2  and  C_3 
REMARK    2  A    between atoms: C_3  and  O_6 
REMARK    3  A    between atoms: C_3  and  C_4 
REMARK    4  A    between atoms: C_7  and  O_6 
REMARK    5  A    between atoms: C_9  and  C_10 
REMARK    6  A    between atoms: N_15  and  C_14 
REMARK    7  A    between atoms: N_20  and  C_19 
REMARK       I    between atoms: C_22  and  N_20 
ROOT
ATOM      1  C   LIG d   1      -6.215  92.721 119.283  0.00  0.00     0.161 C 
ATOM      2  C   LIG d   1      -6.247  91.698 118.320  0.00  0.00     0.016 C 
ATOM      3  C   LIG d   1      -6.716  91.886 117.000  0.00  0.00     0.038 C 
ATOM      4  C   LIG d   1      -7.046  93.157 116.505  0.00  0.00     0.028 C 
ATOM      5  C   LIG d   1      -7.508  94.127 117.586  0.00  0.00    -0.047 C 
ATOM      6  C   LIG d   1      -6.467  94.138 118.729  0.00  0.00     0.091 C 
ENDROOT
BRANCH   1   7
ATOM      7  O   LIG d   1      -4.966  92.678 120.001  0.00  0.00    -0.368 OA
BRANCH   7   8
ATOM      8  C   LIG d   1      -3.908  91.898 119.391  0.00  0.00     0.119 C 
BRANCH   8   9
ATOM      9  C   LIG d   1      -3.428  90.873 120.437  0.00  0.00     0.028 C 
ATOM     10  C   LIG d   1      -3.364  89.444 119.872  0.00  0.00     0.006 C 
ENDBRANCH   8   9
BRANCH   8  11
ATOM     11  C   LIG d   1      -2.684  92.765 119.082  0.00  0.00     0.028 C 
ATOM     12  C   LIG d   1      -2.806  93.513 117.745  0.00  0.00     0.006 C 
ENDBRANCH   8  11
ENDBRANCH   7   8
ENDBRANCH   1   7
BRANCH   6  13
ATOM     13  N   LIG d   1      -6.884  94.999 119.867  0.00  0.00    -0.311 N 
ATOM     14  C   LIG d   1      -6.531  96.278 119.986  0.00  0.00     0.210 C 
ATOM     15  C   LIG d   1      -7.051  96.977 121.246  0.00  0.00     0.109 C 
ATOM     16  O   LIG d   1      -5.863  96.908 119.153  0.00  0.00    -0.276 OA
ATOM     17  H   LIG d   1      -7.453  94.576 120.573  0.00  0.00     0.149 HD
ENDBRANCH   6  13
BRANCH   5  18
ATOM     18  N   LIG d   1      -7.687  95.448 116.953  0.00  0.00     0.381 N 
ATOM     19  H   LIG d   1      -7.094  96.119 117.399  0.00  0.00    -0.090 HD
ATOM     20  H   LIG d   1      -8.641  95.740 117.074  0.00  0.00    -0.090 HD
ATOM     21  H   LIG d   1      -7.468  95.393 115.983  0.00  0.00    -0.090 HD
ENDBRANCH   5  18
BRANCH   3  22
ATOM     22  C   LIG d   1      -6.896  90.789 116.171  0.00  0.00     0.382 C 
ATOM     23  O   LIG d   1      -5.960  90.403 115.430  0.00  0.00    -0.241 OA
ATOM     24  O   LIG d   1      -7.997  90.208 116.123  0.00  0.00    -0.241 OA
ENDBRANCH   3  22
TORSDOF 7
ENDMDL
MODEL 2
REMARK VINA RESULT:      -4.8      2.274      2.654
REMARK  7 active torsions:
REMARK  status: ('A' for Active; 'I' for Inactive)
REMARK    1  A    between atoms: C_2  and  C_3 
REMARK    2  A    between atoms: C_3  and  O_6 
REMARK    3  A    between atoms: C_3  and  C_4 
REMARK    4  A    between atoms: C_7  and  O_6 
REMARK    5  A    between atoms: C_9  and  C_10 
REMARK    6  A    between atoms: N_15  and  C_14 
REMARK    7  A    between atoms: N_20  and  C_19 
REMARK       I    between atoms: C_22  and  N_20 
ROOT
ATOM      1  C   LIG d   1      -4.124  92.179 117.951  0.00  0.00     0.161 C 
ATOM      2  C   LIG d   1      -4.889  91.459 117.018  0.00  0.00     0.016 C 
ATOM      3  C   LIG d   1      -6.137  91.906 116.525  0.00  0.00     0.038 C 
ATOM      4  C   LIG d   1      -6.635  93.184 116.819  0.00  0.00     0.028 C 
ATOM      5  C   LIG d   1      -6.140  93.736 118.152  0.00  0.00    -0.047 C 
ATOM      6  C   LIG d   1      -4.599  93.626 118.198  0.00  0.00     0.091 C 
ENDROOT
BRANCH   1   7
ATOM      7  O   LIG d   1      -2.737  92.167 117.557  0.00  0.00    -0.368 OA
BRANCH   7   8
ATOM      8  C   LIG d   1      -1.996  90.962 117.871  0.00  0.00     0.119 C 
BRANCH   8   9
ATOM      9  C   LIG d   1      -1.826  90.908 119.401  0.00  0.00     0.028 C 
ATOM     10  C   LIG d   1      -1.053  92.119 119.949  0.00  0.00     0.006 C 
ENDBRANCH   8   9
BRANCH   8  11
ATOM     11  C   LIG d   1      -0.573  91.021 117.307  0.00  0.00     0.028 C 
ATOM     12  C   LIG d   1       0.167  89.678 117.417  0.00  0.00     0.006 C 
ENDBRANCH   8  11
ENDBRANCH   7   8
ENDBRANCH   1   7
BRANCH   6  13
ATOM     13  N   LIG d   1      -4.038  94.066 119.502  0.00  0.00    -0.311 N 
ATOM     14  C   LIG d   1      -3.543  95.285 119.713  0.00  0.00     0.210 C 
ATOM     15  C   LIG d   1      -2.997  95.525 121.124  0.00  0.00     0.109 C 
ATOM     16  O   LIG d   1      -3.533  96.199 118.876  0.00  0.00    -0.276 OA
ATOM     17  H   LIG d   1      -4.035  93.397 120.247  0.00  0.00     0.149 HD
ENDBRANCH   6  13
BRANCH   5  18
ATOM     18  N   LIG d   1      -6.625  95.124 118.267  0.00  0.00     0.381 N 
ATOM     19  H   LIG d   1      -7.621  95.129 118.359  0.00  0.00    -0.090 HD
ATOM     20  H   LIG d   1      -6.383  95.623 117.429  0.00  0.00    -0.090 HD
ATOM     21  H   LIG d   1      -6.209  95.566 119.057  0.00  0.00    -0.090 HD
ENDBRANCH   5  18
BRANCH   3  22
ATOM     22  C   LIG d   1      -6.918  91.054 115.759  0.00  0.00     0.382 C 
ATOM     23  O   LIG d   1      -8.080  91.395 115.431  0.00  0.00    -0.241 OA
ATOM     24  O   LIG d   1      -6.492  89.931 115.430  0.00  0.00    -0.241 OA
ENDBRANCH   3  22
TORSDOF 7
ENDMDL
MODEL 3
REMARK VINA RESULT:      -4.8      1.527      4.939
REMARK  7 active torsions:
REMARK  status: ('A' for Active; 'I' for Inactive)
REMARK    1  A    between atoms: C_2  and  C_3 
REMARK    2  A    between atoms: C_3  and  O_6 
REMARK    3  A    between atoms: C_3  and  C_4 
REMARK    4  A    between atoms: C_7  and  O_6 
REMARK    5  A    between atoms: C_9  and  C_10 
REMARK    6  A    between atoms: N_15  and  C_14 
REMARK    7  A    between atoms: N_20  and  C_19 
REMARK       I    between atoms: C_22  and  N_20 
ROOT
ATOM      1  C   LIG d   1      -5.283  93.390 119.345  0.00  0.00     0.161 C 
ATOM      2  C   LIG d   1      -5.437  94.386 120.323  0.00  0.00     0.016 C 
ATOM      3  C   LIG d   1      -6.450  95.372 120.277  0.00  0.00     0.038 C 
ATOM      4  C   LIG d   1      -7.478  95.335 119.323  0.00  0.00     0.028 C 
ATOM      5  C   LIG d   1      -7.073  94.647 118.024  0.00  0.00    -0.047 C 
ATOM      6  C   LIG d   1      -6.461  93.266 118.356  0.00  0.00     0.091 C 
ENDROOT
BRANCH   1   7
ATOM      7  O   LIG d   1      -5.025  92.120 119.977  0.00  0.00    -0.368 OA
BRANCH   7   8
ATOM      8  C   LIG d   1      -3.695  91.576 119.795  0.00  0.00     0.119 C 
BRANCH   8   9
ATOM      9  C   LIG d   1      -2.907  92.565 118.913  0.00  0.00     0.028 C 
ATOM     10  C   LIG d   1      -2.314  91.893 117.663  0.00  0.00     0.006 C 
ENDBRANCH   8   9
BRANCH   8  11
ATOM     11  C   LIG d   1      -3.733  90.267 119.001  0.00  0.00     0.028 C 
ATOM     12  C   LIG d   1      -3.375  89.041 119.856  0.00  0.00     0.006 C 
ENDBRANCH   8  11
ENDBRANCH   7   8
ENDBRANCH   1   7
BRANCH   6  13
ATOM     13  N   LIG d   1      -5.962  92.561 117.147  0.00  0.00    -0.311 N 
ATOM     14  C   LIG d   1      -6.501  91.437 116.679  0.00  0.00     0.210 C 
ATOM     15  C   LIG d   1      -5.820  90.864 115.432  0.00  0.00     0.109 C 
ATOM     16  O   LIG d   1      -7.498  90.877 117.159  0.00  0.00    -0.276 OA
ATOM     17  H   LIG d   1      -5.175  92.964 116.677  0.00  0.00     0.149 HD
ENDBRANCH   6  13
BRANCH   5  18
ATOM     18  N   LIG d   1      -8.275  94.557 117.174  0.00  0.00     0.381 N 
ATOM     19  H   LIG d   1      -8.238  95.256 116.459  0.00  0.00    -0.090 HD
ATOM     20  H   LIG d   1      -9.087  94.728 117.740  0.00  0.00    -0.090 HD
ATOM     21  H   LIG d   1      -8.334  93.652 116.761  0.00  0.00    -0.090 HD
ENDBRANCH   5  18
BRANCH   3  22
ATOM     22  C   LIG d   1      -6.419  96.432 121.171  0.00  0.00     0.382 C 
ATOM     23  O   LIG d   1      -7.426  96.690 121.872  0.00  0.00    -0.241 OA
ATOM     24  O   LIG d   1      -5.411  97.160 121.252  0.00  0.00    -0.241 OA
ENDBRANCH   3  22
TORSDOF 7
ENDMDL
MODEL 4
REMARK VINA RESULT:      -4.8      2.912      4.739
REMARK  7 active torsions:
REMARK  status: ('A' for Active; 'I' for Inactive)
REMARK    1  A    between atoms: C_2  and  C_3 
REMARK    2  A    between atoms: C_3  and  O_6 
REMARK    3  A    between atoms: C_3  and  C_4 
REMARK    4  A    between atoms: C_7  and  O_6 
REMARK    5  A    between atoms: C_9  and  C_10 
REMARK    6  A    between atoms: N_15  and  C_14 
REMARK    7  A    between atoms: N_20  and  C_19 
REMARK       I    between atoms: C_22  and  N_20 
ROOT
ATOM      1  C   LIG d   1      -4.048  93.492 118.655  0.00  0.00     0.161 C 
ATOM      2  C   LIG d   1      -5.335  94.050 118.740  0.00  0.00     0.016 C 
ATOM      3  C   LIG d   1      -6.423  93.621 117.947  0.00  0.00     0.038 C 
ATOM      4  C   LIG d   1      -6.336  92.494 117.116  0.00  0.00     0.028 C 
ATOM      5  C   LIG d   1      -4.921  92.214 116.622  0.00  0.00    -0.047 C 
ATOM      6  C   LIG d   1      -3.962  92.188 117.834  0.00  0.00     0.091 C 
ENDROOT
BRANCH   1   7
ATOM      7  O   LIG d   1      -3.516  93.287 119.979  0.00  0.00    -0.368 OA
BRANCH   7   8
ATOM      8  C   LIG d   1      -4.161  92.262 120.774  0.00  0.00     0.119 C 
BRANCH   8   9
ATOM      9  C   LIG d   1      -4.789  92.954 121.999  0.00  0.00     0.028 C 
ATOM     10  C   LIG d   1      -6.316  92.778 122.055  0.00  0.00     0.006 C 
ENDBRANCH   8   9
BRANCH   8  11
ATOM     11  C   LIG d   1      -3.140  91.274 121.344  0.00  0.00     0.028 C 
ATOM     12  C   LIG d   1      -1.713  91.842 121.374  0.00  0.00     0.006 C 
ENDBRANCH   8  11
ENDBRANCH   7   8
ENDBRANCH   1   7
BRANCH   6  13
ATOM     13  N   LIG d   1      -2.544  92.004 117.431  0.00  0.00    -0.311 N 
ATOM     14  C   LIG d   1      -1.835  90.914 117.721  0.00  0.00     0.210 C 
ATOM     15  C   LIG d   1      -0.384  90.936 117.229  0.00  0.00     0.109 C 
ATOM     16  O   LIG d   1      -2.279  89.918 118.312  0.00  0.00    -0.276 OA
ATOM     17  H   LIG d   1      -2.114  92.750 116.921  0.00  0.00     0.149 HD
ENDBRANCH   6  13
BRANCH   5  18
ATOM     18  N   LIG d   1      -4.952  90.938 115.882  0.00  0.00     0.381 N 
ATOM     19  H   LIG d   1      -4.801  90.176 116.514  0.00  0.00    -0.090 HD
ATOM     20  H   LIG d   1      -4.210  90.937 115.205  0.00  0.00    -0.090 HD
ATOM     21  H   LIG d   1      -5.830  90.830 115.425  0.00  0.00    -0.090 HD
ENDBRANCH   5  18
BRANCH   3  22
ATOM     22  C   LIG d   1      -7.605  94.346 117.952  0.00  0.00     0.382 C 
ATOM     23  O   LIG d   1      -7.723  95.357 117.218  0.00  0.00    -0.241 OA
ATOM     24  O   LIG d   1      -8.539  94.029 118.713  0.00  0.00    -0.241 OA
ENDBRANCH   3  22
TORSDOF 7
ENDMDL
MODEL 5
REMARK VINA RESULT:      -4.7      3.431      5.564
REMARK  7 active torsions:
REMARK  status: ('A' for Active; 'I' for Inactive)
REMARK    1  A    between atoms: C_2  and  C_3 
REMARK    2  A    between atoms: C_3  and  O_6 
REMARK    3  A    between atoms: C_3  and  C_4 
REMARK    4  A    between atoms: C_7  and  O_6 
REMARK    5  A    between atoms: C_9  and  C_10 
REMARK    6  A    between atoms: N_15  and  C_14 
REMARK    7  A    between atoms: N_20  and  C_19 
REMARK       I    between atoms: C_22  and  N_20 
ROOT
ATOM      1  C   LIG d   1      -3.288  92.917 117.492  0.00  0.00     0.161 C 
ATOM      2  C   LIG d   1      -4.682  92.956 117.663  0.00  0.00     0.016 C 
ATOM      3  C   LIG d   1      -5.445  91.845 118.090  0.00  0.00     0.038 C 
ATOM      4  C   LIG d   1      -4.843  90.654 118.523  0.00  0.00     0.028 C 
ATOM      5  C   LIG d   1      -3.479  90.400 117.889  0.00  0.00    -0.047 C 
ATOM      6  C   LIG d   1      -2.601  91.660 118.066  0.00  0.00     0.091 C 
ENDROOT
BRANCH   1   7
ATOM      7  O   LIG d   1      -2.694  94.109 118.045  0.00  0.00    -0.368 OA
BRANCH   7   8
ATOM      8  C   LIG d   1      -3.503  94.840 118.998  0.00  0.00     0.119 C 
BRANCH   8   9
ATOM      9  C   LIG d   1      -3.337  96.341 118.691  0.00  0.00     0.028 C 
ATOM     10  C   LIG d   1      -2.998  97.163 119.945  0.00  0.00     0.006 C 
ENDBRANCH   8   9
BRANCH   8  11
ATOM     11  C   LIG d   1      -2.982  94.659 120.427  0.00  0.00     0.028 C 
ATOM     12  C   LIG d   1      -3.745  93.577 121.207  0.00  0.00     0.006 C 
ENDBRANCH   8  11
ENDBRANCH   7   8
ENDBRANCH   1   7
BRANCH   6  13
ATOM     13  N   LIG d   1      -1.279  91.527 117.401  0.00  0.00    -0.311 N 
ATOM     14  C   LIG d   1      -0.210  90.997 117.994  0.00  0.00     0.210 C 
ATOM     15  C   LIG d   1       1.060  90.974 117.137  0.00  0.00     0.109 C 
ATOM     16  O   LIG d   1      -0.201  90.515 119.137  0.00  0.00    -0.276 OA
ATOM     17  H   LIG d   1      -1.205  91.865 116.461  0.00  0.00     0.149 HD
ENDBRANCH   6  13
BRANCH   5  18
ATOM     18  N   LIG d   1      -2.906  89.202 118.531  0.00  0.00     0.381 N 
ATOM     19  H   LIG d   1      -2.353  88.695 117.869  0.00  0.00    -0.090 HD
ATOM     20  H   LIG d   1      -3.656  88.606 118.836  0.00  0.00    -0.090 HD
ATOM     21  H   LIG d   1      -2.345  89.467 119.310  0.00  0.00    -0.090 HD
ENDBRANCH   5  18
BRANCH   3  22
ATOM     22  C   LIG d   1      -6.830  91.906 118.048  0.00  0.00     0.382 C 
ATOM     23  O   LIG d   1      -7.472  91.090 117.344  0.00  0.00    -0.241 OA
ATOM     24  O   LIG d   1      -7.442  92.794 118.671  0.00  0.00    -0.241 OA
ENDBRANCH   3  22
TORSDOF 7
ENDMDL
MODEL 6
REMARK VINA RESULT:      -4.6      1.848      4.574
REMARK  7 active torsions:
REMARK  status: ('A' for Active; 'I' for Inactive)
REMARK    1  A    between atoms: C_2  and  C_3 
REMARK    2  A    between atoms: C_3  and  O_6 
REMARK    3  A    between atoms: C_3  and  C_4 
REMARK    4  A    between atoms: C_7  and  O_6 
REMARK    5  A    between atoms: C_9  and  C_10 
REMARK    6  A    between atoms: N_15  and  C_14 
REMARK    7  A    between atoms: N_20  and  C_19 
REMARK       I    between atoms: C_22  and  N_20 
ROOT
ATOM      1  C   LIG d   1      -5.134  92.353 118.454  0.00  0.00     0.161 C 
ATOM      2  C   LIG d   1      -4.337  93.428 118.879  0.00  0.00     0.016 C 
ATOM      3  C   LIG d   1      -4.812  94.756 118.982  0.00  0.00     0.038 C 
ATOM      4  C   LIG d   1      -6.168  95.074 118.810  0.00  0.00     0.028 C 
ATOM      5  C   LIG d   1      -6.904  94.107 117.889  0.00  0.00    -0.047 C 
ATOM      6  C   LIG d   1      -6.644  92.660 118.368  0.00  0.00     0.091 C 
ENDROOT
BRANCH   1   7
ATOM      7  O   LIG d   1      -4.903  91.209 119.300  0.00  0.00    -0.368 OA
BRANCH   7   8
ATOM      8  C   LIG d   1      -3.517  90.849 119.521  0.00  0.00     0.119 C 
BRANCH   8   9
ATOM      9  C   LIG d   1      -3.219  89.604 118.663  0.00  0.00     0.028 C 
ATOM     10  C   LIG d   1      -1.741  89.518 118.248  0.00  0.00     0.006 C 
ENDBRANCH   8   9
BRANCH   8  11
ATOM     11  C   LIG d   1      -3.280  90.411 120.969  0.00  0.00     0.028 C 
ATOM     12  C   LIG d   1      -3.845  91.407 121.994  0.00  0.00     0.006 C 
ENDBRANCH   8  11
ENDBRANCH   7   8
ENDBRANCH   1   7
BRANCH   6  13
ATOM     13  N   LIG d   1      -7.260  91.647 117.473  0.00  0.00    -0.311 N 
ATOM     14  C   LIG d   1      -6.976  91.546 116.175  0.00  0.00     0.210 C 
ATOM     15  C   LIG d   1      -7.738  90.445 115.430  0.00  0.00     0.109 C 
ATOM     16  O   LIG d   1      -6.143  92.244 115.577  0.00  0.00    -0.276 OA
ATOM     17  H   LIG d   1      -7.924  91.020 117.882  0.00  0.00     0.149 HD
ENDBRANCH   6  13
BRANCH   5  18
ATOM     18  N   LIG d   1      -8.333  94.474 117.908  0.00  0.00     0.381 N 
ATOM     19  H   LIG d   1      -8.445  95.376 118.326  0.00  0.00    -0.090 HD
ATOM     20  H   LIG d   1      -8.833  93.803 118.465  0.00  0.00    -0.090 HD
ATOM     21  H   LIG d   1      -8.695  94.482 116.980  0.00  0.00    -0.090 HD
ENDBRANCH   5  18
BRANCH   3  22
ATOM     22  C   LIG d   1      -3.919  95.789 119.221  0.00  0.00     0.382 C 
ATOM     23  O   LIG d   1      -2.789  95.541 119.706  0.00  0.00    -0.241 OA
ATOM     24  O   LIG d   1      -4.245  96.970 119.000  0.00  0.00    -0.241 OA
ENDBRANCH   3  22
TORSDOF 7
ENDMDL
MODEL 7
REMARK VINA RESULT:      -4.5      2.567      4.356
REMARK  7 active torsions:
REMARK  status: ('A' for Active; 'I' for Inactive)
REMARK    1  A    between atoms: C_2  and  C_3 
REMARK    2  A    between atoms: C_3  and  O_6 
REMARK    3  A    between atoms: C_3  and  C_4 
REMARK    4  A    between atoms: C_7  and  O_6 
REMARK    5  A    between atoms: C_9  and  C_10 
REMARK    6  A    between atoms: N_15  and  C_14 
REMARK    7  A    between atoms: N_20  and  C_19 
REMARK       I    between atoms: C_22  and  N_20 
ROOT
ATOM      1  C   LIG d   1      -5.331  91.952 119.682  0.00  0.00     0.161 C 
ATOM      2  C   LIG d   1      -6.529  92.444 119.137  0.00  0.00     0.016 C 
ATOM      3  C   LIG d   1      -6.783  93.819 118.930  0.00  0.00     0.038 C 
ATOM      4  C   LIG d   1      -5.790  94.793 119.115  0.00  0.00     0.028 C 
ATOM      5  C   LIG d   1      -4.735  94.394 120.142  0.00  0.00    -0.047 C 
ATOM      6  C   LIG d   1      -4.194  92.991 119.786  0.00  0.00     0.091 C 
ENDROOT
BRANCH   1   7
ATOM      7  O   LIG d   1      -4.890  90.801 118.935  0.00  0.00    -0.368 OA
BRANCH   7   8
ATOM      8  C   LIG d   1      -4.033  91.068 117.799  0.00  0.00     0.119 C 
BRANCH   8   9
ATOM      9  C   LIG d   1      -4.805  90.658 116.530  0.00  0.00     0.028 C 
ATOM     10  C   LIG d   1      -5.472  91.858 115.836  0.00  0.00     0.006 C 
ENDBRANCH   8   9
BRANCH   8  11
ATOM     11  C   LIG d   1      -2.786  90.178 117.820  0.00  0.00     0.028 C 
ATOM     12  C   LIG d   1      -2.783  89.185 118.992  0.00  0.00     0.006 C 
ENDBRANCH   8  11
ENDBRANCH   7   8
ENDBRANCH   1   7
BRANCH   6  13
ATOM     13  N   LIG d   1      -3.217  92.489 120.788  0.00  0.00    -0.311 N 
ATOM     14  C   LIG d   1      -1.902  92.460 120.580  0.00  0.00     0.210 C 
ATOM     15  C   LIG d   1      -1.077  91.886 121.735  0.00  0.00     0.109 C 
ATOM     16  O   LIG d   1      -1.339  92.885 119.560  0.00  0.00    -0.276 OA
ATOM     17  H   LIG d   1      -3.586  92.154 121.657  0.00  0.00     0.149 HD
ENDBRANCH   6  13
BRANCH   5  18
ATOM     18  N   LIG d   1      -3.690  95.436 120.134  0.00  0.00     0.381 N 
ATOM     19  H   LIG d   1      -3.343  95.561 119.204  0.00  0.00    -0.090 HD
ATOM     20  H   LIG d   1      -2.929  95.136 120.718  0.00  0.00    -0.090 HD
ATOM     21  H   LIG d   1      -4.063  96.294 120.476  0.00  0.00    -0.090 HD
ENDBRANCH   5  18
BRANCH   3  22
ATOM     22  C   LIG d   1      -8.056  94.236 118.571  0.00  0.00     0.382 C 
ATOM     23  O   LIG d   1      -8.283  94.615 117.397  0.00  0.00    -0.241 OA
ATOM     24  O   LIG d   1      -8.968  94.280 119.417  0.00  0.00    -0.241 OA
ENDBRANCH   3  22
TORSDOF 7
ENDMDL
MODEL 8
REMARK VINA RESULT:      -4.4      2.422      4.923
REMARK  7 active torsions:
REMARK  status: ('A' for Active; 'I' for Inactive)
REMARK    1  A    between atoms: C_2  and  C_3 
REMARK    2  A    between atoms: C_3  and  O_6 
REMARK    3  A    between atoms: C_3  and  C_4 
REMARK    4  A    between atoms: C_7  and  O_6 
REMARK    5  A    between atoms: C_9  and  C_10 
REMARK    6  A    between atoms: N_15  and  C_14 
REMARK    7  A    between atoms: N_20  and  C_19 
REMARK       I    between atoms: C_22  and  N_20 
ROOT
ATOM      1  C   LIG d   1      -3.367  93.213 118.275  0.00  0.00     0.161 C 
ATOM      2  C   LIG d   1      -2.237  92.848 119.026  0.00  0.00     0.016 C 
ATOM      3  C   LIG d   1      -2.216  92.823 120.439  0.00  0.00     0.038 C 
ATOM      4  C   LIG d   1      -3.378  93.017 121.201  0.00  0.00     0.028 C 
ATOM      5  C   LIG d   1      -4.422  93.883 120.504  0.00  0.00    -0.047 C 
ATOM      6  C   LIG d   1      -4.675  93.321 119.087  0.00  0.00     0.091 C 
ENDROOT
BRANCH   1   7
ATOM      7  O   LIG d   1      -3.536  92.302 117.171  0.00  0.00    -0.368 OA
BRANCH   7   8
ATOM      8  C   LIG d   1      -4.387  91.155 117.416  0.00  0.00     0.119 C 
BRANCH   8   9
ATOM      9  C   LIG d   1      -3.476  89.983 117.828  0.00  0.00     0.028 C 
ATOM     10  C   LIG d   1      -3.668  89.580 119.300  0.00  0.00     0.006 C 
ENDBRANCH   8   9
BRANCH   8  11
ATOM     11  C   LIG d   1      -5.084  90.695 116.132  0.00  0.00     0.028 C 
ATOM     12  C   LIG d   1      -5.848  91.829 115.430  0.00  0.00     0.006 C 
ENDBRANCH   8  11
ENDBRANCH   7   8
ENDBRANCH   1   7
BRANCH   6  13
ATOM     13  N   LIG d   1      -5.622  94.158 118.305  0.00  0.00    -0.311 N 
ATOM     14  C   LIG d   1      -6.921  93.887 118.194  0.00  0.00     0.210 C 
ATOM     15  C   LIG d   1      -7.714  94.868 117.325  0.00  0.00     0.109 C 
ATOM     16  O   LIG d   1      -7.498  92.945 118.758  0.00  0.00    -0.276 OA
ATOM     17  H   LIG d   1      -5.244  94.960 117.840  0.00  0.00     0.149 HD
ENDBRANCH   6  13
BRANCH   5  18
ATOM     18  N   LIG d   1      -5.632  93.889 121.348  0.00  0.00     0.381 N 
ATOM     19  H   LIG d   1      -6.327  93.292 120.948  0.00  0.00    -0.090 HD
ATOM     20  H   LIG d   1      -6.000  94.824 121.382  0.00  0.00    -0.090 HD
ATOM     21  H   LIG d   1      -5.407  93.580 122.268  0.00  0.00    -0.090 HD
ENDBRANCH   5  18
BRANCH   3  22
ATOM     22  C   LIG d   1      -1.014  92.641 121.106  0.00  0.00     0.382 C 
ATOM     23  O   LIG d   1      -1.010  92.221 122.288  0.00  0.00    -0.241 OA
ATOM     24  O   LIG d   1       0.064  92.933 120.555  0.00  0.00    -0.241 OA
ENDBRANCH   3  22
TORSDOF 7
ENDMDL
MODEL 9
REMARK VINA RESULT:      -4.2      2.789      4.520
REMARK  7 active torsions:
REMARK  status: ('A' for Active; 'I' for Inactive)
REMARK    1  A    between atoms: C_2  and  C_3 
REMARK    2  A    between atoms: C_3  and  O_6 
REMARK    3  A    between atoms: C_3  and  C_4 
REMARK    4  A    between atoms: C_7  and  O_6 
REMARK    5  A    between atoms: C_9  and  C_10 
REMARK    6  A    between atoms: N_15  and  C_14 
REMARK    7  A    between atoms: N_20  and  C_19 
REMARK       I    between atoms: C_22  and  N_20 
ROOT
ATOM      1  C   LIG d   1      -5.220  92.455 119.228  0.00  0.00     0.161 C 
ATOM      2  C   LIG d   1      -6.239  92.110 118.326  0.00  0.00     0.016 C 
ATOM      3  C   LIG d   1      -6.002  91.444 117.101  0.00  0.00     0.038 C 
ATOM      4  C   LIG d   1      -4.737  90.939 116.765  0.00  0.00     0.028 C 
ATOM      5  C   LIG d   1      -3.588  91.705 117.410  0.00  0.00    -0.047 C 
ATOM      6  C   LIG d   1      -3.848  91.814 118.930  0.00  0.00     0.091 C 
ENDROOT
BRANCH   1   7
ATOM      7  O   LIG d   1      -5.634  92.148 120.574  0.00  0.00    -0.368 OA
BRANCH   7   8
ATOM      8  C   LIG d   1      -6.074  93.270 121.377  0.00  0.00     0.119 C 
BRANCH   8   9
ATOM      9  C   LIG d   1      -4.932  93.619 122.351  0.00  0.00     0.028 C 
ATOM     10  C   LIG d   1      -4.372  95.032 122.116  0.00  0.00     0.006 C 
ENDBRANCH   8   9
BRANCH   8  11
ATOM     11  C   LIG d   1      -7.262  92.888 122.266  0.00  0.00     0.028 C 
ATOM     12  C   LIG d   1      -8.281  94.028 122.421  0.00  0.00     0.006 C 
ENDBRANCH   8  11
ENDBRANCH   7   8
ENDBRANCH   1   7
BRANCH   6  13
ATOM     13  N   LIG d   1      -2.813  92.622 119.626  0.00  0.00    -0.311 N 
ATOM     14  C   LIG d   1      -2.102  92.171 120.658  0.00  0.00     0.210 C 
ATOM     15  C   LIG d   1      -1.101  93.174 121.241  0.00  0.00     0.109 C 
ATOM     16  O   LIG d   1      -2.182  91.025 121.125  0.00  0.00    -0.276 OA
ATOM     17  H   LIG d   1      -2.661  93.554 119.292  0.00  0.00     0.149 HD
ENDBRANCH   6  13
BRANCH   5  18
ATOM     18  N   LIG d   1      -2.339  90.991 117.087  0.00  0.00     0.381 N 
ATOM     19  H   LIG d   1      -1.711  91.605 116.609  0.00  0.00    -0.090 HD
ATOM     20  H   LIG d   1      -2.553  90.221 116.477  0.00  0.00    -0.090 HD
ATOM     21  H   LIG d   1      -1.913  90.653 117.922  0.00  0.00    -0.090 HD
ENDBRANCH   5  18
BRANCH   3  22
ATOM     22  C   LIG d   1      -7.030  91.311 116.181  0.00  0.00     0.382 C 
ATOM     23  O   LIG d   1      -7.666  92.325 115.801  0.00  0.00    -0.241 OA
ATOM     24  O   LIG d   1      -7.360  90.187 115.759  0.00  0.00    -0.241 OA
ENDBRANCH   3  22
TORSDOF 7
ENDMDL
