MODEL 1
REMARK VINA RESULT:      -5.2      0.000      0.000
REMARK  7 active torsions:
REMARK  status: ('A' for Active; 'I' for Inactive)
REMARK    1  A    between atoms: C_2  and  C_3 
REMARK    2  A    between atoms: C_3  and  O_6 
REMARK    3  A    between atoms: C_3  and  C_4 
REMARK    4  A    between atoms: C_7  and  O_6 
REMARK    5  A    between atoms: C_9  and  C_10 
REMARK    6  A    between atoms: N_15  and  C_14 
REMARK    7  A    between atoms: N_20  and  C_19 
REMARK       I    between atoms: C_22  and  N_20 
ROOT
ATOM      1  C   LIG d   1      -4.107  92.077 118.185  0.00  0.00     0.161 C 
ATOM      2  C   LIG d   1      -5.421  92.571 118.214  0.00  0.00     0.016 C 
ATOM      3  C   LIG d   1      -6.463  92.058 117.406  0.00  0.00     0.038 C 
ATOM      4  C   LIG d   1      -6.293  90.910 116.619  0.00  0.00     0.028 C 
ATOM      5  C   LIG d   1      -4.851  90.686 116.176  0.00  0.00    -0.047 C 
ATOM      6  C   LIG d   1      -3.930  90.752 117.415  0.00  0.00     0.091 C 
ENDROOT
BRANCH   1   7
ATOM      7  O   LIG d   1      -3.605  91.946 119.530  0.00  0.00    -0.368 OA
BRANCH   7   8
ATOM      8  C   LIG d   1      -2.577  92.888 119.922  0.00  0.00     0.119 C 
BRANCH   8   9
ATOM      9  C   LIG d   1      -3.225  93.909 120.877  0.00  0.00     0.028 C 
ATOM     10  C   LIG d   1      -3.426  95.284 120.218  0.00  0.00     0.006 C 
ENDBRANCH   8   9
BRANCH   8  11
ATOM     11  C   LIG d   1      -2.086  93.708 118.725  0.00  0.00     0.028 C 
ATOM     12  C   LIG d   1      -0.596  93.487 118.422  0.00  0.00     0.006 C 
ENDBRANCH   8  11
ENDBRANCH   7   8
ENDBRANCH   1   7
BRANCH   6  13
ATOM     13  N   LIG d   1      -2.492  90.627 117.059  0.00  0.00    -0.311 N 
ATOM     14  C   LIG d   1      -1.628  89.884 117.749  0.00  0.00     0.210 C 
ATOM     15  C   LIG d   1      -0.189  89.911 117.224  0.00  0.00     0.109 C 
ATOM     16  O   LIG d   1      -1.923  89.181 118.727  0.00  0.00    -0.276 OA
ATOM     17  H   LIG d   1      -2.173  91.140 116.260  0.00  0.00     0.149 HD
ENDBRANCH   6  13
BRANCH   5  18
ATOM     18  N   LIG d   1      -4.795  89.385 115.482  0.00  0.00     0.381 N 
ATOM     19  H   LIG d   1      -4.976  89.514 114.506  0.00  0.00    -0.090 HD
ATOM     20  H   LIG d   1      -5.507  88.785 115.859  0.00  0.00    -0.090 HD
ATOM     21  H   LIG d   1      -3.898  88.970 115.609  0.00  0.00    -0.090 HD
ENDBRANCH   5  18
BRANCH   3  22
ATOM     22  C   LIG d   1      -7.679  92.722 117.350  0.00  0.00     0.382 C 
ATOM     23  O   LIG d   1      -8.267  93.042 118.411  0.00  0.00    -0.241 OA
ATOM     24  O   LIG d   1      -8.217  92.964 116.253  0.00  0.00    -0.241 OA
ENDBRANCH   3  22
TORSDOF 7
ENDMDL
MODEL 2
REMARK VINA RESULT:      -5.1      0.733      1.503
REMARK  7 active torsions:
REMARK  status: ('A' for Active; 'I' for Inactive)
REMARK    1  A    between atoms: C_2  and  C_3 
REMARK    2  A    between atoms: C_3  and  O_6 
REMARK    3  A    between atoms: C_3  and  C_4 
REMARK    4  A    between atoms: C_7  and  O_6 
REMARK    5  A    between atoms: C_9  and  C_10 
REMARK    6  A    between atoms: N_15  and  C_14 
REMARK    7  A    between atoms: N_20  and  C_19 
REMARK       I    between atoms: C_22  and  N_20 
ROOT
ATOM      1  C   LIG d   1      -4.095  91.988 118.181  0.00  0.00     0.161 C 
ATOM      2  C   LIG d   1      -5.389  92.534 118.157  0.00  0.00     0.016 C 
ATOM      3  C   LIG d   1      -6.414  92.069 117.301  0.00  0.00     0.038 C 
ATOM      4  C   LIG d   1      -6.257  90.919 116.513  0.00  0.00     0.028 C 
ATOM      5  C   LIG d   1      -4.807  90.640 116.131  0.00  0.00    -0.047 C 
ATOM      6  C   LIG d   1      -3.938  90.661 117.409  0.00  0.00     0.091 C 
ENDROOT
BRANCH   1   7
ATOM      7  O   LIG d   1      -3.658  91.828 119.545  0.00  0.00    -0.368 OA
BRANCH   7   8
ATOM      8  C   LIG d   1      -2.624  92.738 119.994  0.00  0.00     0.119 C 
BRANCH   8   9
ATOM      9  C   LIG d   1      -2.138  93.529 118.764  0.00  0.00     0.028 C 
ATOM     10  C   LIG d   1      -0.633  93.346 118.506  0.00  0.00     0.006 C 
ENDBRANCH   8   9
BRANCH   8  11
ATOM     11  C   LIG d   1      -1.394  91.978 120.499  0.00  0.00     0.028 C 
ATOM     12  C   LIG d   1      -1.759  90.762 121.365  0.00  0.00     0.006 C 
ENDBRANCH   8  11
ENDBRANCH   7   8
ENDBRANCH   1   7
BRANCH   6  13
ATOM     13  N   LIG d   1      -2.493  90.480 117.115  0.00  0.00    -0.311 N 
ATOM     14  C   LIG d   1      -1.734  89.560 117.706  0.00  0.00     0.210 C 
ATOM     15  C   LIG d   1      -0.265  89.557 117.272  0.00  0.00     0.109 C 
ATOM     16  O   LIG d   1      -2.145  88.724 118.525  0.00  0.00    -0.276 OA
ATOM     17  H   LIG d   1      -2.085  91.096 116.439  0.00  0.00     0.149 HD
ENDBRANCH   6  13
BRANCH   5  18
ATOM     18  N   LIG d   1      -4.773  89.342 115.430  0.00  0.00     0.381 N 
ATOM     19  H   LIG d   1      -4.180  88.706 115.924  0.00  0.00    -0.090 HD
ATOM     20  H   LIG d   1      -4.392  89.479 114.510  0.00  0.00    -0.090 HD
ATOM     21  H   LIG d   1      -5.693  88.966 115.363  0.00  0.00    -0.090 HD
ENDBRANCH   5  18
BRANCH   3  22
ATOM     22  C   LIG d   1      -7.600  92.781 117.198  0.00  0.00     0.382 C 
ATOM     23  O   LIG d   1      -8.271  93.033 118.227  0.00  0.00    -0.241 OA
ATOM     24  O   LIG d   1      -8.029  93.135 116.084  0.00  0.00    -0.241 OA
ENDBRANCH   3  22
TORSDOF 7
ENDMDL
MODEL 3
REMARK VINA RESULT:      -4.8      1.656      2.273
REMARK  7 active torsions:
REMARK  status: ('A' for Active; 'I' for Inactive)
REMARK    1  A    between atoms: C_2  and  C_3 
REMARK    2  A    between atoms: C_3  and  O_6 
REMARK    3  A    between atoms: C_3  and  C_4 
REMARK    4  A    between atoms: C_7  and  O_6 
REMARK    5  A    between atoms: C_9  and  C_10 
REMARK    6  A    between atoms: N_15  and  C_14 
REMARK    7  A    between atoms: N_20  and  C_19 
REMARK       I    between atoms: C_22  and  N_20 
ROOT
ATOM      1  C   LIG d   1      -4.026  91.920 118.389  0.00  0.00     0.161 C 
ATOM      2  C   LIG d   1      -5.329  92.443 118.438  0.00  0.00     0.016 C 
ATOM      3  C   LIG d   1      -6.373  92.013 117.586  0.00  0.00     0.038 C 
ATOM      4  C   LIG d   1      -6.222  90.917 116.724  0.00  0.00     0.028 C 
ATOM      5  C   LIG d   1      -4.780  90.688 116.281  0.00  0.00    -0.047 C 
ATOM      6  C   LIG d   1      -3.872  90.647 117.531  0.00  0.00     0.091 C 
ENDROOT
BRANCH   1   7
ATOM      7  O   LIG d   1      -3.544  91.685 119.727  0.00  0.00    -0.368 OA
BRANCH   7   8
ATOM      8  C   LIG d   1      -4.495  91.105 120.654  0.00  0.00     0.119 C 
BRANCH   8   9
ATOM      9  C   LIG d   1      -4.465  91.956 121.939  0.00  0.00     0.028 C 
ATOM     10  C   LIG d   1      -5.743  92.793 122.118  0.00  0.00     0.006 C 
ENDBRANCH   8   9
BRANCH   8  11
ATOM     11  C   LIG d   1      -4.065  89.701 121.088  0.00  0.00     0.028 C 
ATOM     12  C   LIG d   1      -3.365  89.688 122.456  0.00  0.00     0.006 C 
ENDBRANCH   8  11
ENDBRANCH   7   8
ENDBRANCH   1   7
BRANCH   6  13
ATOM     13  N   LIG d   1      -2.434  90.511 117.183  0.00  0.00    -0.311 N 
ATOM     14  C   LIG d   1      -1.636  89.583 117.710  0.00  0.00     0.210 C 
ATOM     15  C   LIG d   1      -0.183  89.631 117.229  0.00  0.00     0.109 C 
ATOM     16  O   LIG d   1      -2.002  88.706 118.506  0.00  0.00    -0.276 OA
ATOM     17  H   LIG d   1      -2.061  91.163 116.521  0.00  0.00     0.149 HD
ENDBRANCH   6  13
BRANCH   5  18
ATOM     18  N   LIG d   1      -4.747  89.437 115.501  0.00  0.00     0.381 N 
ATOM     19  H   LIG d   1      -5.180  88.701 116.022  0.00  0.00    -0.090 HD
ATOM     20  H   LIG d   1      -3.789  89.184 115.333  0.00  0.00    -0.090 HD
ATOM     21  H   LIG d   1      -5.221  89.564 114.633  0.00  0.00    -0.090 HD
ENDBRANCH   5  18
BRANCH   3  22
ATOM     22  C   LIG d   1      -7.572  92.709 117.563  0.00  0.00     0.382 C 
ATOM     23  O   LIG d   1      -8.138  92.947 116.469  0.00  0.00    -0.241 OA
ATOM     24  O   LIG d   1      -8.073  93.139 118.620  0.00  0.00    -0.241 OA
ENDBRANCH   3  22
TORSDOF 7
ENDMDL
MODEL 4
REMARK VINA RESULT:      -4.7      2.314      3.630
REMARK  7 active torsions:
REMARK  status: ('A' for Active; 'I' for Inactive)
REMARK    1  A    between atoms: C_2  and  C_3 
REMARK    2  A    between atoms: C_3  and  O_6 
REMARK    3  A    between atoms: C_3  and  C_4 
REMARK    4  A    between atoms: C_7  and  O_6 
REMARK    5  A    between atoms: C_9  and  C_10 
REMARK    6  A    between atoms: N_15  and  C_14 
REMARK    7  A    between atoms: N_20  and  C_19 
REMARK       I    between atoms: C_22  and  N_20 
ROOT
ATOM      1  C   LIG d   1      -5.464  92.807 118.418  0.00  0.00     0.161 C 
ATOM      2  C   LIG d   1      -6.511  92.059 117.855  0.00  0.00     0.016 C 
ATOM      3  C   LIG d   1      -6.306  90.899 117.073  0.00  0.00     0.038 C 
ATOM      4  C   LIG d   1      -5.038  90.319 116.925  0.00  0.00     0.028 C 
ATOM      5  C   LIG d   1      -3.895  91.320 117.055  0.00  0.00    -0.047 C 
ATOM      6  C   LIG d   1      -4.080  92.126 118.361  0.00  0.00     0.091 C 
ENDROOT
BRANCH   1   7
ATOM      7  O   LIG d   1      -5.791  93.162 119.776  0.00  0.00    -0.368 OA
BRANCH   7   8
ATOM      8  C   LIG d   1      -6.604  94.349 119.946  0.00  0.00     0.119 C 
BRANCH   8   9
ATOM      9  C   LIG d   1      -5.674  95.570 119.807  0.00  0.00     0.028 C 
ATOM     10  C   LIG d   1      -6.301  96.692 118.962  0.00  0.00     0.006 C 
ENDBRANCH   8   9
BRANCH   8  11
ATOM     11  C   LIG d   1      -7.177  94.434 121.364  0.00  0.00     0.028 C 
ATOM     12  C   LIG d   1      -8.631  94.931 121.390  0.00  0.00     0.006 C 
ENDBRANCH   8  11
ENDBRANCH   7   8
ENDBRANCH   1   7
BRANCH   6  13
ATOM     13  N   LIG d   1      -3.051  93.186 118.523  0.00  0.00    -0.311 N 
ATOM     14  C   LIG d   1      -1.918  93.010 119.201  0.00  0.00     0.210 C 
ATOM     15  C   LIG d   1      -1.004  94.238 119.263  0.00  0.00     0.109 C 
ATOM     16  O   LIG d   1      -1.568  91.944 119.730  0.00  0.00    -0.276 OA
ATOM     17  H   LIG d   1      -3.239  94.073 118.099  0.00  0.00     0.149 HD
ENDBRANCH   6  13
BRANCH   5  18
ATOM     18  N   LIG d   1      -2.631  90.560 117.018  0.00  0.00     0.381 N 
ATOM     19  H   LIG d   1      -1.888  91.153 116.705  0.00  0.00    -0.090 HD
ATOM     20  H   LIG d   1      -2.726  89.802 116.366  0.00  0.00    -0.090 HD
ATOM     21  H   LIG d   1      -2.421  90.204 117.925  0.00  0.00    -0.090 HD
ENDBRANCH   5  18
BRANCH   3  22
ATOM     22  C   LIG d   1      -7.374  90.330 116.395  0.00  0.00     0.382 C 
ATOM     23  O   LIG d   1      -7.968  90.981 115.502  0.00  0.00    -0.241 OA
ATOM     24  O   LIG d   1      -7.779  89.191 116.696  0.00  0.00    -0.241 OA
ENDBRANCH   3  22
TORSDOF 7
ENDMDL
MODEL 5
REMARK VINA RESULT:      -4.7      2.470      4.301
REMARK  7 active torsions:
REMARK  status: ('A' for Active; 'I' for Inactive)
REMARK    1  A    between atoms: C_2  and  C_3 
REMARK    2  A    between atoms: C_3  and  O_6 
REMARK    3  A    between atoms: C_3  and  C_4 
REMARK    4  A    between atoms: C_7  and  O_6 
REMARK    5  A    between atoms: C_9  and  C_10 
REMARK    6  A    between atoms: N_15  and  C_14 
REMARK    7  A    between atoms: N_20  and  C_19 
REMARK       I    between atoms: C_22  and  N_20 
ROOT
ATOM      1  C   LIG d   1      -4.590  91.359 119.212  0.00  0.00     0.161 C 
ATOM      2  C   LIG d   1      -5.070  90.519 118.194  0.00  0.00     0.016 C 
ATOM      3  C   LIG d   1      -6.021  90.928 117.231  0.00  0.00     0.038 C 
ATOM      4  C   LIG d   1      -6.447  92.260 117.129  0.00  0.00     0.028 C 
ATOM      5  C   LIG d   1      -6.373  93.022 118.448  0.00  0.00    -0.047 C 
ATOM      6  C   LIG d   1      -4.960  92.849 119.049  0.00  0.00     0.091 C 
ENDROOT
BRANCH   1   7
ATOM      7  O   LIG d   1      -3.162  91.209 119.338  0.00  0.00    -0.368 OA
BRANCH   7   8
ATOM      8  C   LIG d   1      -2.396  91.346 118.116  0.00  0.00     0.119 C 
BRANCH   8   9
ATOM      9  C   LIG d   1      -1.345  90.220 118.100  0.00  0.00     0.028 C 
ATOM     10  C   LIG d   1      -1.980  88.826 117.956  0.00  0.00     0.006 C 
ENDBRANCH   8   9
BRANCH   8  11
ATOM     11  C   LIG d   1      -1.593  92.650 118.106  0.00  0.00     0.028 C 
ATOM     12  C   LIG d   1      -1.191  93.114 119.515  0.00  0.00     0.006 C 
ENDBRANCH   8  11
ENDBRANCH   7   8
ENDBRANCH   1   7
BRANCH   6  13
ATOM     13  N   LIG d   1      -4.828  93.493 120.382  0.00  0.00    -0.311 N 
ATOM     14  C   LIG d   1      -4.357  94.726 120.557  0.00  0.00     0.210 C 
ATOM     15  C   LIG d   1      -4.285  95.191 122.015  0.00  0.00     0.109 C 
ATOM     16  O   LIG d   1      -4.021  95.491 119.640  0.00  0.00    -0.276 OA
ATOM     17  H   LIG d   1      -5.107  92.954 121.179  0.00  0.00     0.149 HD
ENDBRANCH   6  13
BRANCH   5  18
ATOM     18  N   LIG d   1      -6.714  94.430 118.169  0.00  0.00     0.381 N 
ATOM     19  H   LIG d   1      -5.876  94.961 118.034  0.00  0.00    -0.090 HD
ATOM     20  H   LIG d   1      -7.204  94.809 118.960  0.00  0.00    -0.090 HD
ATOM     21  H   LIG d   1      -7.286  94.488 117.355  0.00  0.00    -0.090 HD
ENDBRANCH   5  18
BRANCH   3  22
ATOM     22  C   LIG d   1      -6.586  89.989 116.381  0.00  0.00     0.382 C 
ATOM     23  O   LIG d   1      -7.750  89.573 116.593  0.00  0.00    -0.241 OA
ATOM     24  O   LIG d   1      -5.930  89.520 115.432  0.00  0.00    -0.241 OA
ENDBRANCH   3  22
TORSDOF 7
ENDMDL
MODEL 6
REMARK VINA RESULT:      -4.6      2.356      4.314
REMARK  7 active torsions:
REMARK  status: ('A' for Active; 'I' for Inactive)
REMARK    1  A    between atoms: C_2  and  C_3 
REMARK    2  A    between atoms: C_3  and  O_6 
REMARK    3  A    between atoms: C_3  and  C_4 
REMARK    4  A    between atoms: C_7  and  O_6 
REMARK    5  A    between atoms: C_9  and  C_10 
REMARK    6  A    between atoms: N_15  and  C_14 
REMARK    7  A    between atoms: N_20  and  C_19 
REMARK       I    between atoms: C_22  and  N_20 
ROOT
ATOM      1  C   LIG d   1      -2.842  90.589 118.091  0.00  0.00     0.161 C 
ATOM      2  C   LIG d   1      -3.963  90.069 117.425  0.00  0.00     0.016 C 
ATOM      3  C   LIG d   1      -5.188  90.765 117.302  0.00  0.00     0.038 C 
ATOM      4  C   LIG d   1      -5.326  92.100 117.710  0.00  0.00     0.028 C 
ATOM      5  C   LIG d   1      -4.378  92.490 118.839  0.00  0.00    -0.047 C 
ATOM      6  C   LIG d   1      -2.938  92.088 118.446  0.00  0.00     0.091 C 
ENDROOT
BRANCH   1   7
ATOM      7  O   LIG d   1      -1.652  90.332 117.320  0.00  0.00    -0.368 OA
BRANCH   7   8
ATOM      8  C   LIG d   1      -0.671  89.458 117.932  0.00  0.00     0.119 C 
BRANCH   8   9
ATOM      9  C   LIG d   1       0.724  89.969 117.522  0.00  0.00     0.028 C 
ATOM     10  C   LIG d   1       0.717  91.462 117.152  0.00  0.00     0.006 C 
ENDBRANCH   8   9
BRANCH   8  11
ATOM     11  C   LIG d   1      -0.764  88.036 117.371  0.00  0.00     0.028 C 
ATOM     12  C   LIG d   1       0.555  87.556 116.745  0.00  0.00     0.006 C 
ENDBRANCH   8  11
ENDBRANCH   7   8
ENDBRANCH   1   7
BRANCH   6  13
ATOM     13  N   LIG d   1      -1.958  92.357 119.530  0.00  0.00    -0.311 N 
ATOM     14  C   LIG d   1      -1.226  93.468 119.598  0.00  0.00     0.210 C 
ATOM     15  C   LIG d   1      -0.263  93.536 120.787  0.00  0.00     0.109 C 
ATOM     16  O   LIG d   1      -1.306  94.417 118.804  0.00  0.00    -0.276 OA
ATOM     17  H   LIG d   1      -1.852  91.653 120.234  0.00  0.00     0.149 HD
ENDBRANCH   6  13
BRANCH   5  18
ATOM     18  N   LIG d   1      -4.531  93.938 119.070  0.00  0.00     0.381 N 
ATOM     19  H   LIG d   1      -4.863  94.100 120.000  0.00  0.00    -0.090 HD
ATOM     20  H   LIG d   1      -5.212  94.300 118.425  0.00  0.00    -0.090 HD
ATOM     21  H   LIG d   1      -3.658  94.399 118.936  0.00  0.00    -0.090 HD
ENDBRANCH   5  18
BRANCH   3  22
ATOM     22  C   LIG d   1      -6.303  90.110 116.801  0.00  0.00     0.382 C 
ATOM     23  O   LIG d   1      -7.377  90.117 117.449  0.00  0.00    -0.241 OA
ATOM     24  O   LIG d   1      -6.236  89.476 115.731  0.00  0.00    -0.241 OA
ENDBRANCH   3  22
TORSDOF 7
ENDMDL
MODEL 7
REMARK VINA RESULT:      -4.5      2.363      4.286
REMARK  7 active torsions:
REMARK  status: ('A' for Active; 'I' for Inactive)
REMARK    1  A    between atoms: C_2  and  C_3 
REMARK    2  A    between atoms: C_3  and  O_6 
REMARK    3  A    between atoms: C_3  and  C_4 
REMARK    4  A    between atoms: C_7  and  O_6 
REMARK    5  A    between atoms: C_9  and  C_10 
REMARK    6  A    between atoms: N_15  and  C_14 
REMARK    7  A    between atoms: N_20  and  C_19 
REMARK       I    between atoms: C_22  and  N_20 
ROOT
ATOM      1  C   LIG d   1      -4.287  91.317 118.514  0.00  0.00     0.161 C 
ATOM      2  C   LIG d   1      -4.965  90.623 117.498  0.00  0.00     0.016 C 
ATOM      3  C   LIG d   1      -6.092  91.142 116.820  0.00  0.00     0.038 C 
ATOM      4  C   LIG d   1      -6.527  92.463 117.008  0.00  0.00     0.028 C 
ATOM      5  C   LIG d   1      -6.184  93.023 118.384  0.00  0.00    -0.047 C 
ATOM      6  C   LIG d   1      -4.679  92.803 118.655  0.00  0.00     0.091 C 
ENDROOT
BRANCH   1   7
ATOM      7  O   LIG d   1      -2.863  91.190 118.325  0.00  0.00    -0.368 OA
BRANCH   7   8
ATOM      8  C   LIG d   1      -2.350  89.838 118.238  0.00  0.00     0.119 C 
BRANCH   8   9
ATOM      9  C   LIG d   1      -2.229  89.295 119.675  0.00  0.00     0.028 C 
ATOM     10  C   LIG d   1      -3.133  88.075 119.919  0.00  0.00     0.006 C 
ENDBRANCH   8   9
BRANCH   8  11
ATOM     11  C   LIG d   1      -0.926  89.818 117.676  0.00  0.00     0.028 C 
ATOM     12  C   LIG d   1      -0.419  88.396 117.387  0.00  0.00     0.006 C 
ENDBRANCH   8  11
ENDBRANCH   7   8
ENDBRANCH   1   7
BRANCH   6  13
ATOM     13  N   LIG d   1      -4.276  93.247 120.015  0.00  0.00    -0.311 N 
ATOM     14  C   LIG d   1      -3.344  94.171 120.238  0.00  0.00     0.210 C 
ATOM     15  C   LIG d   1      -3.068  94.467 121.716  0.00  0.00     0.109 C 
ATOM     16  O   LIG d   1      -2.742  94.798 119.353  0.00  0.00    -0.276 OA
ATOM     17  H   LIG d   1      -4.736  92.813 120.791  0.00  0.00     0.149 HD
ENDBRANCH   6  13
BRANCH   5  18
ATOM     18  N   LIG d   1      -6.571  94.447 118.394  0.00  0.00     0.381 N 
ATOM     19  H   LIG d   1      -7.161  94.632 119.181  0.00  0.00    -0.090 HD
ATOM     20  H   LIG d   1      -7.090  94.649 117.557  0.00  0.00    -0.090 HD
ATOM     21  H   LIG d   1      -5.758  95.021 118.436  0.00  0.00    -0.090 HD
ENDBRANCH   5  18
BRANCH   3  22
ATOM     22  C   LIG d   1      -6.820  90.323 115.971  0.00  0.00     0.382 C 
ATOM     23  O   LIG d   1      -8.040  90.547 115.777  0.00  0.00    -0.241 OA
ATOM     24  O   LIG d   1      -6.284  89.337 115.430  0.00  0.00    -0.241 OA
ENDBRANCH   3  22
TORSDOF 7
ENDMDL
MODEL 8
REMARK VINA RESULT:      -4.4      2.650      4.994
REMARK  7 active torsions:
REMARK  status: ('A' for Active; 'I' for Inactive)
REMARK    1  A    between atoms: C_2  and  C_3 
REMARK    2  A    between atoms: C_3  and  O_6 
REMARK    3  A    between atoms: C_3  and  C_4 
REMARK    4  A    between atoms: C_7  and  O_6 
REMARK    5  A    between atoms: C_9  and  C_10 
REMARK    6  A    between atoms: N_15  and  C_14 
REMARK    7  A    between atoms: N_20  and  C_19 
REMARK       I    between atoms: C_22  and  N_20 
ROOT
ATOM      1  C   LIG d   1      -4.740  91.483 118.282  0.00  0.00     0.161 C 
ATOM      2  C   LIG d   1      -3.981  92.509 118.870  0.00  0.00     0.016 C 
ATOM      3  C   LIG d   1      -4.554  93.615 119.539  0.00  0.00     0.038 C 
ATOM      4  C   LIG d   1      -5.930  93.693 119.798  0.00  0.00     0.028 C 
ATOM      5  C   LIG d   1      -6.781  92.935 118.784  0.00  0.00    -0.047 C 
ATOM      6  C   LIG d   1      -6.238  91.494 118.650  0.00  0.00     0.091 C 
ENDROOT
BRANCH   1   7
ATOM      7  O   LIG d   1      -4.157  90.203 118.595  0.00  0.00    -0.368 OA
BRANCH   7   8
ATOM      8  C   LIG d   1      -3.199  90.187 119.682  0.00  0.00     0.119 C 
BRANCH   8   9
ATOM      9  C   LIG d   1      -1.971  89.387 119.206  0.00  0.00     0.028 C 
ATOM     10  C   LIG d   1      -2.315  88.403 118.075  0.00  0.00     0.006 C 
ENDBRANCH   8   9
BRANCH   8  11
ATOM     11  C   LIG d   1      -3.741  89.418 120.890  0.00  0.00     0.028 C 
ATOM     12  C   LIG d   1      -4.590  90.296 121.823  0.00  0.00     0.006 C 
ENDBRANCH   8  11
ENDBRANCH   7   8
ENDBRANCH   1   7
BRANCH   6  13
ATOM     13  N   LIG d   1      -6.962  90.710 117.616  0.00  0.00    -0.311 N 
ATOM     14  C   LIG d   1      -6.966  91.029 116.323  0.00  0.00     0.210 C 
ATOM     15  C   LIG d   1      -7.791  90.097 115.430  0.00  0.00     0.109 C 
ATOM     16  O   LIG d   1      -6.338  91.976 115.827  0.00  0.00    -0.276 OA
ATOM     17  H   LIG d   1      -7.472  89.906 117.928  0.00  0.00     0.149 HD
ENDBRANCH   6  13
BRANCH   5  18
ATOM     18  N   LIG d   1      -8.180  92.985 119.251  0.00  0.00     0.381 N 
ATOM     19  H   LIG d   1      -8.781  93.242 118.493  0.00  0.00    -0.090 HD
ATOM     20  H   LIG d   1      -8.259  93.685 119.968  0.00  0.00    -0.090 HD
ATOM     21  H   LIG d   1      -8.451  92.097 119.612  0.00  0.00    -0.090 HD
ENDBRANCH   5  18
BRANCH   3  22
ATOM     22  C   LIG d   1      -3.750  94.678 119.921  0.00  0.00     0.382 C 
ATOM     23  O   LIG d   1      -2.517  94.507 120.077  0.00  0.00    -0.241 OA
ATOM     24  O   LIG d   1      -4.249  95.795 120.156  0.00  0.00    -0.241 OA
ENDBRANCH   3  22
TORSDOF 7
ENDMDL
MODEL 9
REMARK VINA RESULT:      -4.2      2.541      4.173
REMARK  7 active torsions:
REMARK  status: ('A' for Active; 'I' for Inactive)
REMARK    1  A    between atoms: C_2  and  C_3 
REMARK    2  A    between atoms: C_3  and  O_6 
REMARK    3  A    between atoms: C_3  and  C_4 
REMARK    4  A    between atoms: C_7  and  O_6 
REMARK    5  A    between atoms: C_9  and  C_10 
REMARK    6  A    between atoms: N_15  and  C_14 
REMARK    7  A    between atoms: N_20  and  C_19 
REMARK       I    between atoms: C_22  and  N_20 
ROOT
ATOM      1  C   LIG d   1      -2.934  89.690 118.799  0.00  0.00     0.161 C 
ATOM      2  C   LIG d   1      -4.323  89.859 118.682  0.00  0.00     0.016 C 
ATOM      3  C   LIG d   1      -4.923  91.027 118.158  0.00  0.00     0.038 C 
ATOM      4  C   LIG d   1      -4.165  92.051 117.571  0.00  0.00     0.028 C 
ATOM      5  C   LIG d   1      -2.746  92.147 118.123  0.00  0.00    -0.047 C 
ATOM      6  C   LIG d   1      -2.088  90.749 118.062  0.00  0.00     0.091 C 
ENDROOT
BRANCH   1   7
ATOM      7  O   LIG d   1      -2.565  88.365 118.367  0.00  0.00    -0.368 OA
BRANCH   7   8
ATOM      8  C   LIG d   1      -2.225  87.424 119.415  0.00  0.00     0.119 C 
BRANCH   8   9
ATOM      9  C   LIG d   1      -2.112  88.217 120.731  0.00  0.00     0.028 C 
ATOM     10  C   LIG d   1      -2.973  87.616 121.854  0.00  0.00     0.006 C 
ENDBRANCH   8   9
BRANCH   8  11
ATOM     11  C   LIG d   1      -0.838  86.815 119.188  0.00  0.00     0.028 C 
ATOM     12  C   LIG d   1       0.257  87.501 120.020  0.00  0.00     0.006 C 
ENDBRANCH   8  11
ENDBRANCH   7   8
ENDBRANCH   1   7
BRANCH   6  13
ATOM     13  N   LIG d   1      -0.728  90.736 118.661  0.00  0.00    -0.311 N 
ATOM     14  C   LIG d   1       0.391  90.775 117.940  0.00  0.00     0.210 C 
ATOM     15  C   LIG d   1       1.687  90.732 118.755  0.00  0.00     0.109 C 
ATOM     16  O   LIG d   1       0.433  90.874 116.705  0.00  0.00    -0.276 OA
ATOM     17  H   LIG d   1      -0.670  90.689 119.660  0.00  0.00     0.149 HD
ENDBRANCH   6  13
BRANCH   5  18
ATOM     18  N   LIG d   1      -2.026  93.160 117.329  0.00  0.00     0.381 N 
ATOM     19  H   LIG d   1      -1.044  92.975 117.356  0.00  0.00    -0.090 HD
ATOM     20  H   LIG d   1      -2.188  94.065 117.734  0.00  0.00    -0.090 HD
ATOM     21  H   LIG d   1      -2.349  93.147 116.387  0.00  0.00    -0.090 HD
ENDBRANCH   5  18
BRANCH   3  22
ATOM     22  C   LIG d   1      -6.296  91.197 118.254  0.00  0.00     0.382 C 
ATOM     23  O   LIG d   1      -7.069  90.298 117.843  0.00  0.00    -0.241 OA
ATOM     24  O   LIG d   1      -6.772  92.256 118.706  0.00  0.00    -0.241 OA
ENDBRANCH   3  22
TORSDOF 7
ENDMDL
