MODEL 1
REMARK VINA RESULT:      -5.6      0.000      0.000
REMARK  7 active torsions:
REMARK  status: ('A' for Active; 'I' for Inactive)
REMARK    1  A    between atoms: C_2  and  C_3 
REMARK    2  A    between atoms: C_3  and  O_6 
REMARK    3  A    between atoms: C_3  and  C_4 
REMARK    4  A    between atoms: C_7  and  O_6 
REMARK    5  A    between atoms: C_9  and  C_10 
REMARK    6  A    between atoms: N_15  and  C_14 
REMARK    7  A    between atoms: N_20  and  C_19 
REMARK       I    between atoms: C_22  and  N_20 
ROOT
ATOM      1  C   LIG d   1      -6.716  93.587 117.026  0.00  0.00     0.161 C 
ATOM      2  C   LIG d   1      -6.980  92.283 116.576  0.00  0.00     0.016 C 
ATOM      3  C   LIG d   1      -6.137  91.181 116.848  0.00  0.00     0.038 C 
ATOM      4  C   LIG d   1      -5.045  91.280 117.722  0.00  0.00     0.028 C 
ATOM      5  C   LIG d   1      -4.452  92.684 117.794  0.00  0.00    -0.047 C 
ATOM      6  C   LIG d   1      -5.588  93.694 118.074  0.00  0.00     0.091 C 
ENDROOT
BRANCH   1   7
ATOM      7  O   LIG d   1      -7.927  94.185 117.531  0.00  0.00    -0.368 OA
BRANCH   7   8
ATOM      8  C   LIG d   1      -8.113  94.133 118.967  0.00  0.00     0.119 C 
BRANCH   8   9
ATOM      9  C   LIG d   1      -9.294  93.183 119.247  0.00  0.00     0.028 C 
ATOM     10  C   LIG d   1     -10.336  93.806 120.191  0.00  0.00     0.006 C 
ENDBRANCH   8   9
BRANCH   8  11
ATOM     11  C   LIG d   1      -8.546  95.493 119.522  0.00  0.00     0.028 C 
ATOM     12  C   LIG d   1      -8.225  96.655 118.569  0.00  0.00     0.006 C 
ENDBRANCH   8  11
ENDBRANCH   7   8
ENDBRANCH   1   7
BRANCH   6  13
ATOM     13  N   LIG d   1      -5.108  95.101 118.076  0.00  0.00    -0.311 N 
ATOM     14  C   LIG d   1      -4.793  95.766 119.186  0.00  0.00     0.210 C 
ATOM     15  C   LIG d   1      -4.339  97.213 118.965  0.00  0.00     0.109 C 
ATOM     16  O   LIG d   1      -4.817  95.286 120.329  0.00  0.00    -0.276 OA
ATOM     17  H   LIG d   1      -5.029  95.557 117.188  0.00  0.00     0.149 HD
ENDBRANCH   6  13
BRANCH   5  18
ATOM     18  N   LIG d   1      -3.414  92.676 118.841  0.00  0.00     0.381 N 
ATOM     19  H   LIG d   1      -2.636  92.122 118.543  0.00  0.00    -0.090 HD
ATOM     20  H   LIG d   1      -3.795  92.263 119.674  0.00  0.00    -0.090 HD
ATOM     21  H   LIG d   1      -3.114  93.607 119.031  0.00  0.00    -0.090 HD
ENDBRANCH   5  18
BRANCH   3  22
ATOM     22  C   LIG d   1      -6.362  89.970 116.210  0.00  0.00     0.382 C 
ATOM     23  O   LIG d   1      -5.445  89.434 115.543  0.00  0.00    -0.241 OA
ATOM     24  O   LIG d   1      -7.483  89.430 116.258  0.00  0.00    -0.241 OA
ENDBRANCH   3  22
TORSDOF 7
ENDMDL
MODEL 2
REMARK VINA RESULT:      -5.2      2.150      3.968
REMARK  7 active torsions:
REMARK  status: ('A' for Active; 'I' for Inactive)
REMARK    1  A    between atoms: C_2  and  C_3 
REMARK    2  A    between atoms: C_3  and  O_6 
REMARK    3  A    between atoms: C_3  and  C_4 
REMARK    4  A    between atoms: C_7  and  O_6 
REMARK    5  A    between atoms: C_9  and  C_10 
REMARK    6  A    between atoms: N_15  and  C_14 
REMARK    7  A    between atoms: N_20  and  C_19 
REMARK       I    between atoms: C_22  and  N_20 
ROOT
ATOM      1  C   LIG d   1      -6.313  92.027 119.019  0.00  0.00     0.161 C 
ATOM      2  C   LIG d   1      -6.219  91.032 118.033  0.00  0.00     0.016 C 
ATOM      3  C   LIG d   1      -6.760  91.170 116.734  0.00  0.00     0.038 C 
ATOM      4  C   LIG d   1      -7.303  92.381 116.282  0.00  0.00     0.028 C 
ATOM      5  C   LIG d   1      -7.873  93.245 117.402  0.00  0.00    -0.047 C 
ATOM      6  C   LIG d   1      -6.805  93.398 118.509  0.00  0.00     0.091 C 
ENDROOT
BRANCH   1   7
ATOM      7  O   LIG d   1      -5.047  92.169 119.694  0.00  0.00    -0.368 OA
BRANCH   7   8
ATOM      8  C   LIG d   1      -4.083  93.046 119.062  0.00  0.00     0.119 C 
BRANCH   8   9
ATOM      9  C   LIG d   1      -2.850  92.195 118.699  0.00  0.00     0.028 C 
ATOM     10  C   LIG d   1      -2.760  90.907 119.535  0.00  0.00     0.006 C 
ENDBRANCH   8   9
BRANCH   8  11
ATOM     11  C   LIG d   1      -3.569  94.107 120.040  0.00  0.00     0.028 C 
ATOM     12  C   LIG d   1      -4.103  93.908 121.468  0.00  0.00     0.006 C 
ENDBRANCH   8  11
ENDBRANCH   7   8
ENDBRANCH   1   7
BRANCH   6  13
ATOM     13  N   LIG d   1      -7.309  94.160 119.682  0.00  0.00    -0.311 N 
ATOM     14  C   LIG d   1      -7.105  95.465 119.852  0.00  0.00     0.210 C 
ATOM     15  C   LIG d   1      -7.693  96.049 121.140  0.00  0.00     0.109 C 
ATOM     16  O   LIG d   1      -6.520  96.200 119.043  0.00  0.00    -0.276 OA
ATOM     17  H   LIG d   1      -7.822  93.647 120.372  0.00  0.00     0.149 HD
ENDBRANCH   6  13
BRANCH   5  18
ATOM     18  N   LIG d   1      -8.280  94.533 116.809  0.00  0.00     0.381 N 
ATOM     19  H   LIG d   1      -8.023  94.556 115.842  0.00  0.00    -0.090 HD
ATOM     20  H   LIG d   1      -7.796  95.276 117.282  0.00  0.00    -0.090 HD
ATOM     21  H   LIG d   1      -9.264  94.655 116.903  0.00  0.00    -0.090 HD
ENDBRANCH   5  18
BRANCH   3  22
ATOM     22  C   LIG d   1      -6.795  90.074 115.884  0.00  0.00     0.382 C 
ATOM     23  O   LIG d   1      -7.892  89.669 115.430  0.00  0.00    -0.241 OA
ATOM     24  O   LIG d   1      -5.750  89.459 115.602  0.00  0.00    -0.241 OA
ENDBRANCH   3  22
TORSDOF 7
ENDMDL
MODEL 3
REMARK VINA RESULT:      -5.1      2.266      4.676
REMARK  7 active torsions:
REMARK  status: ('A' for Active; 'I' for Inactive)
REMARK    1  A    between atoms: C_2  and  C_3 
REMARK    2  A    between atoms: C_3  and  O_6 
REMARK    3  A    between atoms: C_3  and  C_4 
REMARK    4  A    between atoms: C_7  and  O_6 
REMARK    5  A    between atoms: C_9  and  C_10 
REMARK    6  A    between atoms: N_15  and  C_14 
REMARK    7  A    between atoms: N_20  and  C_19 
REMARK       I    between atoms: C_22  and  N_20 
ROOT
ATOM      1  C   LIG d   1      -4.749  92.116 118.504  0.00  0.00     0.161 C 
ATOM      2  C   LIG d   1      -5.116  91.128 117.575  0.00  0.00     0.016 C 
ATOM      3  C   LIG d   1      -6.015  91.359 116.508  0.00  0.00     0.038 C 
ATOM      4  C   LIG d   1      -6.494  92.642 116.206  0.00  0.00     0.028 C 
ATOM      5  C   LIG d   1      -6.549  93.568 117.417  0.00  0.00    -0.047 C 
ATOM      6  C   LIG d   1      -5.175  93.550 118.125  0.00  0.00     0.091 C 
ENDROOT
BRANCH   1   7
ATOM      7  O   LIG d   1      -3.328  92.061 118.739  0.00  0.00    -0.368 OA
BRANCH   7   8
ATOM      8  C   LIG d   1      -2.874  91.047 119.669  0.00  0.00     0.119 C 
BRANCH   8   9
ATOM      9  C   LIG d   1      -2.091  91.762 120.787  0.00  0.00     0.028 C 
ATOM     10  C   LIG d   1      -1.840  93.246 120.472  0.00  0.00     0.006 C 
ENDBRANCH   8   9
BRANCH   8  11
ATOM     11  C   LIG d   1      -1.868  90.098 119.012  0.00  0.00     0.028 C 
ATOM     12  C   LIG d   1      -2.183  88.618 119.280  0.00  0.00     0.006 C 
ENDBRANCH   8  11
ENDBRANCH   7   8
ENDBRANCH   1   7
BRANCH   6  13
ATOM     13  N   LIG d   1      -5.167  94.364 119.368  0.00  0.00    -0.311 N 
ATOM     14  C   LIG d   1      -4.751  95.629 119.414  0.00  0.00     0.210 C 
ATOM     15  C   LIG d   1      -4.807  96.279 120.800  0.00  0.00     0.109 C 
ATOM     16  O   LIG d   1      -4.371  96.284 118.432  0.00  0.00    -0.276 OA
ATOM     17  H   LIG d   1      -5.489  93.921 120.206  0.00  0.00     0.149 HD
ENDBRANCH   6  13
BRANCH   5  18
ATOM     18  N   LIG d   1      -6.934  94.908 116.936  0.00  0.00     0.381 N 
ATOM     19  H   LIG d   1      -7.849  94.874 116.533  0.00  0.00    -0.090 HD
ATOM     20  H   LIG d   1      -6.286  95.197 116.224  0.00  0.00    -0.090 HD
ATOM     21  H   LIG d   1      -6.920  95.559 117.691  0.00  0.00    -0.090 HD
ENDBRANCH   5  18
BRANCH   3  22
ATOM     22  C   LIG d   1      -6.474  90.290 115.754  0.00  0.00     0.382 C 
ATOM     23  O   LIG d   1      -7.685  90.226 115.430  0.00  0.00    -0.241 OA
ATOM     24  O   LIG d   1      -5.703  89.367 115.430  0.00  0.00    -0.241 OA
ENDBRANCH   3  22
TORSDOF 7
ENDMDL
MODEL 4
REMARK VINA RESULT:      -4.9      2.601      5.055
REMARK  7 active torsions:
REMARK  status: ('A' for Active; 'I' for Inactive)
REMARK    1  A    between atoms: C_2  and  C_3 
REMARK    2  A    between atoms: C_3  and  O_6 
REMARK    3  A    between atoms: C_3  and  C_4 
REMARK    4  A    between atoms: C_7  and  O_6 
REMARK    5  A    between atoms: C_9  and  C_10 
REMARK    6  A    between atoms: N_15  and  C_14 
REMARK    7  A    between atoms: N_20  and  C_19 
REMARK       I    between atoms: C_22  and  N_20 
ROOT
ATOM      1  C   LIG d   1      -4.410  93.210 118.405  0.00  0.00     0.161 C 
ATOM      2  C   LIG d   1      -5.563  94.005 118.299  0.00  0.00     0.016 C 
ATOM      3  C   LIG d   1      -6.702  93.628 117.551  0.00  0.00     0.038 C 
ATOM      4  C   LIG d   1      -6.825  92.353 116.979  0.00  0.00     0.028 C 
ATOM      5  C   LIG d   1      -5.484  91.712 116.636  0.00  0.00    -0.047 C 
ATOM      6  C   LIG d   1      -4.568  91.768 117.879  0.00  0.00     0.091 C 
ENDROOT
BRANCH   1   7
ATOM      7  O   LIG d   1      -3.949  93.198 119.771  0.00  0.00    -0.368 OA
BRANCH   7   8
ATOM      8  C   LIG d   1      -4.450  92.123 120.603  0.00  0.00     0.119 C 
BRANCH   8   9
ATOM      9  C   LIG d   1      -5.406  92.747 121.638  0.00  0.00     0.028 C 
ATOM     10  C   LIG d   1      -6.878  92.396 121.363  0.00  0.00     0.006 C 
ENDBRANCH   8   9
BRANCH   8  11
ATOM     11  C   LIG d   1      -3.326  91.483 121.423  0.00  0.00     0.028 C 
ATOM     12  C   LIG d   1      -1.929  91.953 120.988  0.00  0.00     0.006 C 
ENDBRANCH   8  11
ENDBRANCH   7   8
ENDBRANCH   1   7
BRANCH   6  13
ATOM     13  N   LIG d   1      -3.207  91.237 117.605  0.00  0.00    -0.311 N 
ATOM     14  C   LIG d   1      -2.826  90.000 117.919  0.00  0.00     0.210 C 
ATOM     15  C   LIG d   1      -1.374  89.662 117.567  0.00  0.00     0.109 C 
ATOM     16  O   LIG d   1      -3.562  89.140 118.425  0.00  0.00    -0.276 OA
ATOM     17  H   LIG d   1      -2.555  91.858 117.168  0.00  0.00     0.149 HD
ENDBRANCH   6  13
BRANCH   5  18
ATOM     18  N   LIG d   1      -5.753  90.336 116.177  0.00  0.00     0.381 N 
ATOM     19  H   LIG d   1      -4.891  89.839 116.074  0.00  0.00    -0.090 HD
ATOM     20  H   LIG d   1      -6.204  90.375 115.280  0.00  0.00    -0.090 HD
ATOM     21  H   LIG d   1      -6.340  89.867 116.831  0.00  0.00    -0.090 HD
ENDBRANCH   5  18
BRANCH   3  22
ATOM     22  C   LIG d   1      -7.718  94.547 117.336  0.00  0.00     0.382 C 
ATOM     23  O   LIG d   1      -7.460  95.775 117.320  0.00  0.00    -0.241 OA
ATOM     24  O   LIG d   1      -8.897  94.166 117.203  0.00  0.00    -0.241 OA
ENDBRANCH   3  22
TORSDOF 7
ENDMDL
MODEL 5
REMARK VINA RESULT:      -4.9      2.711      5.508
REMARK  7 active torsions:
REMARK  status: ('A' for Active; 'I' for Inactive)
REMARK    1  A    between atoms: C_2  and  C_3 
REMARK    2  A    between atoms: C_3  and  O_6 
REMARK    3  A    between atoms: C_3  and  C_4 
REMARK    4  A    between atoms: C_7  and  O_6 
REMARK    5  A    between atoms: C_9  and  C_10 
REMARK    6  A    between atoms: N_15  and  C_14 
REMARK    7  A    between atoms: N_20  and  C_19 
REMARK       I    between atoms: C_22  and  N_20 
ROOT
ATOM      1  C   LIG d   1      -4.462  92.445 118.194  0.00  0.00     0.161 C 
ATOM      2  C   LIG d   1      -5.564  93.311 118.099  0.00  0.00     0.016 C 
ATOM      3  C   LIG d   1      -6.681  93.060 117.269  0.00  0.00     0.038 C 
ATOM      4  C   LIG d   1      -6.841  91.844 116.589  0.00  0.00     0.028 C 
ATOM      5  C   LIG d   1      -5.521  91.156 116.258  0.00  0.00    -0.047 C 
ATOM      6  C   LIG d   1      -4.669  91.060 117.544  0.00  0.00     0.091 C 
ENDROOT
BRANCH   1   7
ATOM      7  O   LIG d   1      -4.074  92.297 119.574  0.00  0.00    -0.368 OA
BRANCH   7   8
ATOM      8  C   LIG d   1      -2.955  93.107 120.012  0.00  0.00     0.119 C 
BRANCH   8   9
ATOM      9  C   LIG d   1      -1.822  92.148 120.424  0.00  0.00     0.028 C 
ATOM     10  C   LIG d   1      -0.639  92.182 119.441  0.00  0.00     0.006 C 
ENDBRANCH   8   9
BRANCH   8  11
ATOM     11  C   LIG d   1      -3.300  93.894 121.280  0.00  0.00     0.028 C 
ATOM     12  C   LIG d   1      -3.163  95.414 121.093  0.00  0.00     0.006 C 
ENDBRANCH   8  11
ENDBRANCH   7   8
ENDBRANCH   1   7
BRANCH   6  13
ATOM     13  N   LIG d   1      -3.326  90.476 117.293  0.00  0.00    -0.311 N 
ATOM     14  C   LIG d   1      -2.829  89.454 117.988  0.00  0.00     0.210 C 
ATOM     15  C   LIG d   1      -1.418  89.020 117.579  0.00  0.00     0.109 C 
ATOM     16  O   LIG d   1      -3.435  88.846 118.882  0.00  0.00    -0.276 OA
ATOM     17  H   LIG d   1      -2.778  90.889 116.563  0.00  0.00     0.149 HD
ENDBRANCH   6  13
BRANCH   5  18
ATOM     18  N   LIG d   1      -5.838  89.839 115.675  0.00  0.00     0.381 N 
ATOM     19  H   LIG d   1      -4.996  89.316 115.542  0.00  0.00    -0.090 HD
ATOM     20  H   LIG d   1      -6.269  89.976 114.778  0.00  0.00    -0.090 HD
ATOM     21  H   LIG d   1      -6.456  89.340 116.276  0.00  0.00    -0.090 HD
ENDBRANCH   5  18
BRANCH   3  22
ATOM     22  C   LIG d   1      -7.634  94.050 117.083  0.00  0.00     0.382 C 
ATOM     23  O   LIG d   1      -7.332  95.253 117.266  0.00  0.00    -0.241 OA
ATOM     24  O   LIG d   1      -8.804  93.750 116.779  0.00  0.00    -0.241 OA
ENDBRANCH   3  22
TORSDOF 7
ENDMDL
MODEL 6
REMARK VINA RESULT:      -4.8      3.095      5.561
REMARK  7 active torsions:
REMARK  status: ('A' for Active; 'I' for Inactive)
REMARK    1  A    between atoms: C_2  and  C_3 
REMARK    2  A    between atoms: C_3  and  O_6 
REMARK    3  A    between atoms: C_3  and  C_4 
REMARK    4  A    between atoms: C_7  and  O_6 
REMARK    5  A    between atoms: C_9  and  C_10 
REMARK    6  A    between atoms: N_15  and  C_14 
REMARK    7  A    between atoms: N_20  and  C_19 
REMARK       I    between atoms: C_22  and  N_20 
ROOT
ATOM      1  C   LIG d   1      -3.956  91.111 118.908  0.00  0.00     0.161 C 
ATOM      2  C   LIG d   1      -4.783  90.580 117.904  0.00  0.00     0.016 C 
ATOM      3  C   LIG d   1      -5.578  91.377 117.048  0.00  0.00     0.038 C 
ATOM      4  C   LIG d   1      -5.483  92.777 117.038  0.00  0.00     0.028 C 
ATOM      5  C   LIG d   1      -5.040  93.363 118.375  0.00  0.00    -0.047 C 
ATOM      6  C   LIG d   1      -3.755  92.639 118.839  0.00  0.00     0.091 C 
ENDROOT
BRANCH   1   7
ATOM      7  O   LIG d   1      -2.683  90.436 118.898  0.00  0.00    -0.368 OA
BRANCH   7   8
ATOM      8  C   LIG d   1      -2.673  89.100 118.339  0.00  0.00     0.119 C 
BRANCH   8   9
ATOM      9  C   LIG d   1      -2.745  88.106 119.513  0.00  0.00     0.028 C 
ATOM     10  C   LIG d   1      -1.473  87.249 119.636  0.00  0.00     0.006 C 
ENDBRANCH   8   9
BRANCH   8  11
ATOM     11  C   LIG d   1      -1.346  88.801 117.635  0.00  0.00     0.028 C 
ATOM     12  C   LIG d   1      -0.516  90.066 117.364  0.00  0.00     0.006 C 
ENDBRANCH   8  11
ENDBRANCH   7   8
ENDBRANCH   1   7
BRANCH   6  13
ATOM     13  N   LIG d   1      -3.301  93.093 120.179  0.00  0.00    -0.311 N 
ATOM     14  C   LIG d   1      -2.030  93.366 120.469  0.00  0.00     0.210 C 
ATOM     15  C   LIG d   1      -1.776  93.800 121.916  0.00  0.00     0.109 C 
ATOM     16  O   LIG d   1      -1.094  93.321 119.657  0.00  0.00    -0.276 OA
ATOM     17  H   LIG d   1      -4.000  93.187 120.890  0.00  0.00     0.149 HD
ENDBRANCH   6  13
BRANCH   5  18
ATOM     18  N   LIG d   1      -4.849  94.813 118.184  0.00  0.00     0.381 N 
ATOM     19  H   LIG d   1      -5.422  95.134 117.430  0.00  0.00    -0.090 HD
ATOM     20  H   LIG d   1      -3.889  94.986 117.947  0.00  0.00    -0.090 HD
ATOM     21  H   LIG d   1      -5.086  95.301 119.021  0.00  0.00    -0.090 HD
ENDBRANCH   5  18
BRANCH   3  22
ATOM     22  C   LIG d   1      -6.509  90.775 116.216  0.00  0.00     0.382 C 
ATOM     23  O   LIG d   1      -7.359  91.476 115.615  0.00  0.00    -0.241 OA
ATOM     24  O   LIG d   1      -6.538  89.536 116.093  0.00  0.00    -0.241 OA
ENDBRANCH   3  22
TORSDOF 7
ENDMDL
MODEL 7
REMARK VINA RESULT:      -4.8      2.430      4.469
REMARK  7 active torsions:
REMARK  status: ('A' for Active; 'I' for Inactive)
REMARK    1  A    between atoms: C_2  and  C_3 
REMARK    2  A    between atoms: C_3  and  O_6 
REMARK    3  A    between atoms: C_3  and  C_4 
REMARK    4  A    between atoms: C_7  and  O_6 
REMARK    5  A    between atoms: C_9  and  C_10 
REMARK    6  A    between atoms: N_15  and  C_14 
REMARK    7  A    between atoms: N_20  and  C_19 
REMARK       I    between atoms: C_22  and  N_20 
ROOT
ATOM      1  C   LIG d   1      -5.501  92.155 119.747  0.00  0.00     0.161 C 
ATOM      2  C   LIG d   1      -4.318  91.522 119.331  0.00  0.00     0.016 C 
ATOM      3  C   LIG d   1      -4.202  90.811 118.115  0.00  0.00     0.038 C 
ATOM      4  C   LIG d   1      -5.224  90.813 117.154  0.00  0.00     0.028 C 
ATOM      5  C   LIG d   1      -6.614  91.016 117.749  0.00  0.00    -0.047 C 
ATOM      6  C   LIG d   1      -6.593  92.263 118.661  0.00  0.00     0.091 C 
ENDROOT
BRANCH   1   7
ATOM      7  O   LIG d   1      -5.196  93.459 120.281  0.00  0.00    -0.368 OA
BRANCH   7   8
ATOM      8  C   LIG d   1      -4.185  94.217 119.572  0.00  0.00     0.119 C 
BRANCH   8   9
ATOM      9  C   LIG d   1      -3.274  94.874 120.628  0.00  0.00     0.028 C 
ATOM     10  C   LIG d   1      -2.035  94.021 120.946  0.00  0.00     0.006 C 
ENDBRANCH   8   9
BRANCH   8  11
ATOM     11  C   LIG d   1      -4.806  95.380 118.792  0.00  0.00     0.028 C 
ATOM     12  C   LIG d   1      -6.099  95.906 119.435  0.00  0.00     0.006 C 
ENDBRANCH   8  11
ENDBRANCH   7   8
ENDBRANCH   1   7
BRANCH   6  13
ATOM     13  N   LIG d   1      -7.891  92.485 119.349  0.00  0.00    -0.311 N 
ATOM     14  C   LIG d   1      -8.845  93.284 118.875  0.00  0.00     0.210 C 
ATOM     15  C   LIG d   1     -10.098  93.386 119.751  0.00  0.00     0.109 C 
ATOM     16  O   LIG d   1      -8.786  93.893 117.796  0.00  0.00    -0.276 OA
ATOM     17  H   LIG d   1      -8.036  92.005 120.216  0.00  0.00     0.149 HD
ENDBRANCH   6  13
BRANCH   5  18
ATOM     18  N   LIG d   1      -7.565  91.136 116.628  0.00  0.00     0.381 N 
ATOM     19  H   LIG d   1      -8.038  92.016 116.677  0.00  0.00    -0.090 HD
ATOM     20  H   LIG d   1      -8.251  90.405 116.704  0.00  0.00    -0.090 HD
ATOM     21  H   LIG d   1      -7.082  91.058 115.760  0.00  0.00    -0.090 HD
ENDBRANCH   5  18
BRANCH   3  22
ATOM     22  C   LIG d   1      -3.068  90.053 117.867  0.00  0.00     0.382 C 
ATOM     23  O   LIG d   1      -3.178  88.847 117.539  0.00  0.00    -0.241 OA
ATOM     24  O   LIG d   1      -1.934  90.549 118.011  0.00  0.00    -0.241 OA
ENDBRANCH   3  22
TORSDOF 7
ENDMDL
MODEL 8
REMARK VINA RESULT:      -4.7      2.173      2.460
REMARK  7 active torsions:
REMARK  status: ('A' for Active; 'I' for Inactive)
REMARK    1  A    between atoms: C_2  and  C_3 
REMARK    2  A    between atoms: C_3  and  O_6 
REMARK    3  A    between atoms: C_3  and  C_4 
REMARK    4  A    between atoms: C_7  and  O_6 
REMARK    5  A    between atoms: C_9  and  C_10 
REMARK    6  A    between atoms: N_15  and  C_14 
REMARK    7  A    between atoms: N_20  and  C_19 
REMARK       I    between atoms: C_22  and  N_20 
ROOT
ATOM      1  C   LIG d   1      -6.164  92.531 119.374  0.00  0.00     0.161 C 
ATOM      2  C   LIG d   1      -6.886  91.821 118.400  0.00  0.00     0.016 C 
ATOM      3  C   LIG d   1      -6.274  91.129 117.329  0.00  0.00     0.038 C 
ATOM      4  C   LIG d   1      -4.883  90.973 117.246  0.00  0.00     0.028 C 
ATOM      5  C   LIG d   1      -4.105  92.095 117.925  0.00  0.00    -0.047 C 
ATOM      6  C   LIG d   1      -4.642  92.279 119.363  0.00  0.00     0.091 C 
ENDROOT
BRANCH   1   7
ATOM      7  O   LIG d   1      -6.708  92.257 120.681  0.00  0.00    -0.368 OA
BRANCH   7   8
ATOM      8  C   LIG d   1      -7.493  93.317 121.280  0.00  0.00     0.119 C 
BRANCH   8   9
ATOM      9  C   LIG d   1      -8.976  92.914 121.169  0.00  0.00     0.028 C 
ATOM     10  C   LIG d   1      -9.666  93.543 119.947  0.00  0.00     0.006 C 
ENDBRANCH   8   9
BRANCH   8  11
ATOM     11  C   LIG d   1      -7.367  94.620 120.486  0.00  0.00     0.028 C 
ATOM     12  C   LIG d   1      -6.741  95.760 121.306  0.00  0.00     0.006 C 
ENDBRANCH   8  11
ENDBRANCH   7   8
ENDBRANCH   1   7
BRANCH   6  13
ATOM     13  N   LIG d   1      -3.993  93.414 120.069  0.00  0.00    -0.311 N 
ATOM     14  C   LIG d   1      -2.952  93.269 120.888  0.00  0.00     0.210 C 
ATOM     15  C   LIG d   1      -2.449  94.566 121.529  0.00  0.00     0.109 C 
ATOM     16  O   LIG d   1      -2.378  92.195 121.119  0.00  0.00    -0.276 OA
ATOM     17  H   LIG d   1      -4.376  94.326 119.915  0.00  0.00     0.149 HD
ENDBRANCH   6  13
BRANCH   5  18
ATOM     18  N   LIG d   1      -2.675  91.736 117.883  0.00  0.00     0.381 N 
ATOM     19  H   LIG d   1      -2.441  91.384 116.976  0.00  0.00    -0.090 HD
ATOM     20  H   LIG d   1      -2.502  91.011 118.557  0.00  0.00    -0.090 HD
ATOM     21  H   LIG d   1      -2.117  92.534 118.091  0.00  0.00    -0.090 HD
ENDBRANCH   5  18
BRANCH   3  22
ATOM     22  C   LIG d   1      -7.057  90.618 116.305  0.00  0.00     0.382 C 
ATOM     23  O   LIG d   1      -7.254  89.382 116.224  0.00  0.00    -0.241 OA
ATOM     24  O   LIG d   1      -7.532  91.373 115.436  0.00  0.00    -0.241 OA
ENDBRANCH   3  22
TORSDOF 7
ENDMDL
MODEL 9
REMARK VINA RESULT:      -4.5      2.540      4.891
REMARK  7 active torsions:
REMARK  status: ('A' for Active; 'I' for Inactive)
REMARK    1  A    between atoms: C_2  and  C_3 
REMARK    2  A    between atoms: C_3  and  O_6 
REMARK    3  A    between atoms: C_3  and  C_4 
REMARK    4  A    between atoms: C_7  and  O_6 
REMARK    5  A    between atoms: C_9  and  C_10 
REMARK    6  A    between atoms: N_15  and  C_14 
REMARK    7  A    between atoms: N_20  and  C_19 
REMARK       I    between atoms: C_22  and  N_20 
ROOT
ATOM      1  C   LIG d   1      -6.140  92.655 119.187  0.00  0.00     0.161 C 
ATOM      2  C   LIG d   1      -7.541  92.659 119.298  0.00  0.00     0.016 C 
ATOM      3  C   LIG d   1      -8.233  93.228 120.392  0.00  0.00     0.038 C 
ATOM      4  C   LIG d   1      -7.572  93.970 121.382  0.00  0.00     0.028 C 
ATOM      5  C   LIG d   1      -6.116  93.561 121.576  0.00  0.00    -0.047 C 
ATOM      6  C   LIG d   1      -5.408  93.557 120.202  0.00  0.00     0.091 C 
ENDROOT
BRANCH   1   7
ATOM      7  O   LIG d   1      -5.756  93.000 117.842  0.00  0.00    -0.368 OA
BRANCH   7   8
ATOM      8  C   LIG d   1      -5.103  91.956 117.078  0.00  0.00     0.119 C 
BRANCH   8   9
ATOM      9  C   LIG d   1      -6.076  91.519 115.966  0.00  0.00     0.028 C 
ATOM     10  C   LIG d   1      -6.921  92.688 115.432  0.00  0.00     0.006 C 
ENDBRANCH   8   9
BRANCH   8  11
ATOM     11  C   LIG d   1      -4.871  90.705 117.929  0.00  0.00     0.028 C 
ATOM     12  C   LIG d   1      -3.397  90.270 117.960  0.00  0.00     0.006 C 
ENDBRANCH   8  11
ENDBRANCH   7   8
ENDBRANCH   1   7
BRANCH   6  13
ATOM     13  N   LIG d   1      -4.002  93.086 120.291  0.00  0.00    -0.311 N 
ATOM     14  C   LIG d   1      -2.959  93.907 120.408  0.00  0.00     0.210 C 
ATOM     15  C   LIG d   1      -1.594  93.215 120.462  0.00  0.00     0.109 C 
ATOM     16  O   LIG d   1      -3.038  95.141 120.504  0.00  0.00    -0.276 OA
ATOM     17  H   LIG d   1      -3.848  92.098 120.252  0.00  0.00     0.149 HD
ENDBRANCH   6  13
BRANCH   5  18
ATOM     18  N   LIG d   1      -5.512  94.504 122.536  0.00  0.00     0.381 N 
ATOM     19  H   LIG d   1      -5.252  95.347 122.064  0.00  0.00    -0.090 HD
ATOM     20  H   LIG d   1      -4.682  94.089 122.921  0.00  0.00    -0.090 HD
ATOM     21  H   LIG d   1      -6.159  94.709 123.266  0.00  0.00    -0.090 HD
ENDBRANCH   5  18
BRANCH   3  22
ATOM     22  C   LIG d   1      -9.598  93.023 120.524  0.00  0.00     0.382 C 
ATOM     23  O   LIG d   1     -10.327  92.986 119.504  0.00  0.00    -0.241 OA
ATOM     24  O   LIG d   1     -10.115  92.918 121.652  0.00  0.00    -0.241 OA
ENDBRANCH   3  22
TORSDOF 7
ENDMDL
