MODEL 1
REMARK VINA RESULT:      -4.8      0.000      0.000
REMARK  7 active torsions:
REMARK  status: ('A' for Active; 'I' for Inactive)
REMARK    1  A    between atoms: C_2  and  C_3 
REMARK    2  A    between atoms: C_3  and  O_6 
REMARK    3  A    between atoms: C_3  and  C_4 
REMARK    4  A    between atoms: C_7  and  O_6 
REMARK    5  A    between atoms: C_9  and  C_10 
REMARK    6  A    between atoms: N_15  and  C_14 
REMARK    7  A    between atoms: N_20  and  C_19 
REMARK       I    between atoms: C_22  and  N_20 
ROOT
ATOM      1  C   LIG d   1      -2.840  89.820 118.311  0.00  0.00     0.161 C 
ATOM      2  C   LIG d   1      -4.230  89.892 118.119  0.00  0.00     0.016 C 
ATOM      3  C   LIG d   1      -4.899  91.066 117.703  0.00  0.00     0.038 C 
ATOM      4  C   LIG d   1      -4.201  92.214 117.302  0.00  0.00     0.028 C 
ATOM      5  C   LIG d   1      -2.832  92.351 117.960  0.00  0.00    -0.047 C 
ATOM      6  C   LIG d   1      -2.050  91.031 117.772  0.00  0.00     0.091 C 
ENDROOT
BRANCH   1   7
ATOM      7  O   LIG d   1      -2.331  88.597 117.744  0.00  0.00    -0.368 OA
BRANCH   7   8
ATOM      8  C   LIG d   1      -2.109  87.508 118.673  0.00  0.00     0.119 C 
BRANCH   8   9
ATOM      9  C   LIG d   1      -1.925  88.124 120.073  0.00  0.00     0.028 C 
ATOM     10  C   LIG d   1      -0.469  88.048 120.561  0.00  0.00     0.006 C 
ENDBRANCH   8   9
BRANCH   8  11
ATOM     11  C   LIG d   1      -0.795  86.779 118.375  0.00  0.00     0.028 C 
ATOM     12  C   LIG d   1      -0.154  87.225 117.051  0.00  0.00     0.006 C 
ENDBRANCH   8  11
ENDBRANCH   7   8
ENDBRANCH   1   7
BRANCH   6  13
ATOM     13  N   LIG d   1      -0.732  91.050 118.458  0.00  0.00    -0.311 N 
ATOM     14  C   LIG d   1       0.430  90.949 117.816  0.00  0.00     0.210 C 
ATOM     15  C   LIG d   1       1.670  90.970 118.715  0.00  0.00     0.109 C 
ATOM     16  O   LIG d   1       0.554  90.877 116.584  0.00  0.00    -0.276 OA
ATOM     17  H   LIG d   1      -0.738  91.137 119.455  0.00  0.00     0.149 HD
ENDBRANCH   6  13
BRANCH   5  18
ATOM     18  N   LIG d   1      -2.159  93.514 117.350  0.00  0.00     0.381 N 
ATOM     19  H   LIG d   1      -1.355  93.209 116.837  0.00  0.00    -0.090 HD
ATOM     20  H   LIG d   1      -1.851  94.131 118.081  0.00  0.00    -0.090 HD
ATOM     21  H   LIG d   1      -2.788  93.992 116.744  0.00  0.00    -0.090 HD
ENDBRANCH   5  18
BRANCH   3  22
ATOM     22  C   LIG d   1      -6.285  91.111 117.724  0.00  0.00     0.382 C 
ATOM     23  O   LIG d   1      -6.948  90.322 117.008  0.00  0.00    -0.241 OA
ATOM     24  O   LIG d   1      -6.879  91.960 118.414  0.00  0.00    -0.241 OA
ENDBRANCH   3  22
TORSDOF 7
ENDMDL
MODEL 2
REMARK VINA RESULT:      -4.8      3.322      5.513
REMARK  7 active torsions:
REMARK  status: ('A' for Active; 'I' for Inactive)
REMARK    1  A    between atoms: C_2  and  C_3 
REMARK    2  A    between atoms: C_3  and  O_6 
REMARK    3  A    between atoms: C_3  and  C_4 
REMARK    4  A    between atoms: C_7  and  O_6 
REMARK    5  A    between atoms: C_9  and  C_10 
REMARK    6  A    between atoms: N_15  and  C_14 
REMARK    7  A    between atoms: N_20  and  C_19 
REMARK       I    between atoms: C_22  and  N_20 
ROOT
ATOM      1  C   LIG d   1      -5.332  92.919 118.413  0.00  0.00     0.161 C 
ATOM      2  C   LIG d   1      -6.395  92.275 117.757  0.00  0.00     0.016 C 
ATOM      3  C   LIG d   1      -6.224  91.150 116.918  0.00  0.00     0.038 C 
ATOM      4  C   LIG d   1      -4.989  90.496 116.797  0.00  0.00     0.028 C 
ATOM      5  C   LIG d   1      -3.793  91.411 117.040  0.00  0.00    -0.047 C 
ATOM      6  C   LIG d   1      -3.993  92.152 118.382  0.00  0.00     0.091 C 
ENDROOT
BRANCH   1   7
ATOM      7  O   LIG d   1      -5.707  93.217 119.773  0.00  0.00    -0.368 OA
BRANCH   7   8
ATOM      8  C   LIG d   1      -7.090  93.591 119.986  0.00  0.00     0.119 C 
BRANCH   8   9
ATOM      9  C   LIG d   1      -7.179  95.124 119.865  0.00  0.00     0.028 C 
ATOM     10  C   LIG d   1      -7.997  95.570 118.642  0.00  0.00     0.006 C 
ENDBRANCH   8   9
BRANCH   8  11
ATOM     11  C   LIG d   1      -7.541  93.269 121.414  0.00  0.00     0.028 C 
ATOM     12  C   LIG d   1      -7.419  91.775 121.754  0.00  0.00     0.006 C 
ENDBRANCH   8  11
ENDBRANCH   7   8
ENDBRANCH   1   7
BRANCH   6  13
ATOM     13  N   LIG d   1      -2.909  93.131 118.656  0.00  0.00    -0.311 N 
ATOM     14  C   LIG d   1      -1.821  92.839 119.367  0.00  0.00     0.210 C 
ATOM     15  C   LIG d   1      -0.836  93.998 119.548  0.00  0.00     0.109 C 
ATOM     16  O   LIG d   1      -1.562  91.721 119.838  0.00  0.00    -0.276 OA
ATOM     17  H   LIG d   1      -3.022  94.054 118.285  0.00  0.00     0.149 HD
ENDBRANCH   6  13
BRANCH   5  18
ATOM     18  N   LIG d   1      -2.579  90.572 117.019  0.00  0.00     0.381 N 
ATOM     19  H   LIG d   1      -2.162  90.557 117.928  0.00  0.00    -0.090 HD
ATOM     20  H   LIG d   1      -1.919  90.973 116.376  0.00  0.00    -0.090 HD
ATOM     21  H   LIG d   1      -2.810  89.646 116.735  0.00  0.00    -0.090 HD
ENDBRANCH   5  18
BRANCH   3  22
ATOM     22  C   LIG d   1      -7.289  90.692 116.157  0.00  0.00     0.382 C 
ATOM     23  O   LIG d   1      -7.930  91.491 115.431  0.00  0.00    -0.241 OA
ATOM     24  O   LIG d   1      -7.645  89.500 116.221  0.00  0.00    -0.241 OA
ENDBRANCH   3  22
TORSDOF 7
ENDMDL
MODEL 3
REMARK VINA RESULT:      -4.7      3.414      4.879
REMARK  7 active torsions:
REMARK  status: ('A' for Active; 'I' for Inactive)
REMARK    1  A    between atoms: C_2  and  C_3 
REMARK    2  A    between atoms: C_3  and  O_6 
REMARK    3  A    between atoms: C_3  and  C_4 
REMARK    4  A    between atoms: C_7  and  O_6 
REMARK    5  A    between atoms: C_9  and  C_10 
REMARK    6  A    between atoms: N_15  and  C_14 
REMARK    7  A    between atoms: N_20  and  C_19 
REMARK       I    between atoms: C_22  and  N_20 
ROOT
ATOM      1  C   LIG d   1      -5.461  92.952 118.446  0.00  0.00     0.161 C 
ATOM      2  C   LIG d   1      -6.509  92.284 117.790  0.00  0.00     0.016 C 
ATOM      3  C   LIG d   1      -6.312  91.172 116.940  0.00  0.00     0.038 C 
ATOM      4  C   LIG d   1      -5.059  90.554 116.806  0.00  0.00     0.028 C 
ATOM      5  C   LIG d   1      -3.888  91.500 117.050  0.00  0.00    -0.047 C 
ATOM      6  C   LIG d   1      -4.101  92.224 118.399  0.00  0.00     0.091 C 
ENDROOT
BRANCH   1   7
ATOM      7  O   LIG d   1      -5.835  93.228 119.810  0.00  0.00    -0.368 OA
BRANCH   7   8
ATOM      8  C   LIG d   1      -5.701  92.128 120.743  0.00  0.00     0.119 C 
BRANCH   8   9
ATOM      9  C   LIG d   1      -7.100  91.835 121.318  0.00  0.00     0.028 C 
ATOM     10  C   LIG d   1      -8.080  93.000 121.099  0.00  0.00     0.006 C 
ENDBRANCH   8   9
BRANCH   8  11
ATOM     11  C   LIG d   1      -4.841  92.520 121.948  0.00  0.00     0.028 C 
ATOM     12  C   LIG d   1      -4.450  94.007 121.942  0.00  0.00     0.006 C 
ENDBRANCH   8  11
ENDBRANCH   7   8
ENDBRANCH   1   7
BRANCH   6  13
ATOM     13  N   LIG d   1      -3.043  93.230 118.676  0.00  0.00    -0.311 N 
ATOM     14  C   LIG d   1      -1.956  92.971 119.400  0.00  0.00     0.210 C 
ATOM     15  C   LIG d   1      -1.001  94.155 119.580  0.00  0.00     0.109 C 
ATOM     16  O   LIG d   1      -1.676  91.863 119.883  0.00  0.00    -0.276 OA
ATOM     17  H   LIG d   1      -3.175  94.147 118.295  0.00  0.00     0.149 HD
ENDBRANCH   6  13
BRANCH   5  18
ATOM     18  N   LIG d   1      -2.652  90.697 117.014  0.00  0.00     0.381 N 
ATOM     19  H   LIG d   1      -1.990  91.064 117.669  0.00  0.00    -0.090 HD
ATOM     20  H   LIG d   1      -2.251  90.757 116.094  0.00  0.00    -0.090 HD
ATOM     21  H   LIG d   1      -2.855  89.747 117.234  0.00  0.00    -0.090 HD
ENDBRANCH   5  18
BRANCH   3  22
ATOM     22  C   LIG d   1      -7.368  90.691 116.181  0.00  0.00     0.382 C 
ATOM     23  O   LIG d   1      -7.658  89.471 116.214  0.00  0.00    -0.241 OA
ATOM     24  O   LIG d   1      -8.006  91.454 115.431  0.00  0.00    -0.241 OA
ENDBRANCH   3  22
TORSDOF 7
ENDMDL
MODEL 4
REMARK VINA RESULT:      -4.5      2.499      4.614
REMARK  7 active torsions:
REMARK  status: ('A' for Active; 'I' for Inactive)
REMARK    1  A    between atoms: C_2  and  C_3 
REMARK    2  A    between atoms: C_3  and  O_6 
REMARK    3  A    between atoms: C_3  and  C_4 
REMARK    4  A    between atoms: C_7  and  O_6 
REMARK    5  A    between atoms: C_9  and  C_10 
REMARK    6  A    between atoms: N_15  and  C_14 
REMARK    7  A    between atoms: N_20  and  C_19 
REMARK       I    between atoms: C_22  and  N_20 
ROOT
ATOM      1  C   LIG d   1      -2.734  92.911 118.032  0.00  0.00     0.161 C 
ATOM      2  C   LIG d   1      -4.107  93.105 118.262  0.00  0.00     0.016 C 
ATOM      3  C   LIG d   1      -5.059  92.062 118.210  0.00  0.00     0.038 C 
ATOM      4  C   LIG d   1      -4.680  90.718 118.074  0.00  0.00     0.028 C 
ATOM      5  C   LIG d   1      -3.359  90.533 117.336  0.00  0.00    -0.047 C 
ATOM      6  C   LIG d   1      -2.288  91.435 117.992  0.00  0.00     0.091 C 
ENDROOT
BRANCH   1   7
ATOM      7  O   LIG d   1      -1.967  93.640 119.011  0.00  0.00    -0.368 OA
BRANCH   7   8
ATOM      8  C   LIG d   1      -1.106  94.686 118.497  0.00  0.00     0.119 C 
BRANCH   8   9
ATOM      9  C   LIG d   1       0.115  94.781 119.432  0.00  0.00     0.028 C 
ATOM     10  C   LIG d   1       1.242  93.818 119.025  0.00  0.00     0.006 C 
ENDBRANCH   8   9
BRANCH   8  11
ATOM     11  C   LIG d   1      -1.786  96.056 118.576  0.00  0.00     0.028 C 
ATOM     12  C   LIG d   1      -1.355  96.865 119.810  0.00  0.00     0.006 C 
ENDBRANCH   8  11
ENDBRANCH   7   8
ENDBRANCH   1   7
BRANCH   6  13
ATOM     13  N   LIG d   1      -0.985  91.378 117.278  0.00  0.00    -0.311 N 
ATOM     14  C   LIG d   1       0.012  90.571 117.636  0.00  0.00     0.210 C 
ATOM     15  C   LIG d   1       1.276  90.685 116.778  0.00  0.00     0.109 C 
ATOM     16  O   LIG d   1      -0.042  89.748 118.562  0.00  0.00    -0.276 OA
ATOM     17  H   LIG d   1      -0.867  91.991 116.495  0.00  0.00     0.149 HD
ENDBRANCH   6  13
BRANCH   5  18
ATOM     18  N   LIG d   1      -3.017  89.099 117.386  0.00  0.00     0.381 N 
ATOM     19  H   LIG d   1      -2.829  88.829 118.331  0.00  0.00    -0.090 HD
ATOM     20  H   LIG d   1      -2.186  88.944 116.843  0.00  0.00    -0.090 HD
ATOM     21  H   LIG d   1      -3.768  88.557 117.021  0.00  0.00    -0.090 HD
ENDBRANCH   5  18
BRANCH   3  22
ATOM     22  C   LIG d   1      -6.412  92.364 118.256  0.00  0.00     0.382 C 
ATOM     23  O   LIG d   1      -6.979  92.854 117.250  0.00  0.00    -0.241 OA
ATOM     24  O   LIG d   1      -7.062  92.192 119.305  0.00  0.00    -0.241 OA
ENDBRANCH   3  22
TORSDOF 7
ENDMDL
MODEL 5
REMARK VINA RESULT:      -4.4      2.174      2.995
REMARK  7 active torsions:
REMARK  status: ('A' for Active; 'I' for Inactive)
REMARK    1  A    between atoms: C_2  and  C_3 
REMARK    2  A    between atoms: C_3  and  O_6 
REMARK    3  A    between atoms: C_3  and  C_4 
REMARK    4  A    between atoms: C_7  and  O_6 
REMARK    5  A    between atoms: C_9  and  C_10 
REMARK    6  A    between atoms: N_15  and  C_14 
REMARK    7  A    between atoms: N_20  and  C_19 
REMARK       I    between atoms: C_22  and  N_20 
ROOT
ATOM      1  C   LIG d   1      -4.105  91.030 117.930  0.00  0.00     0.161 C 
ATOM      2  C   LIG d   1      -5.136  90.607 117.074  0.00  0.00     0.016 C 
ATOM      3  C   LIG d   1      -6.297  91.372 116.817  0.00  0.00     0.038 C 
ATOM      4  C   LIG d   1      -6.437  92.687 117.285  0.00  0.00     0.028 C 
ATOM      5  C   LIG d   1      -5.653  92.962 118.563  0.00  0.00    -0.047 C 
ATOM      6  C   LIG d   1      -4.189  92.509 118.362  0.00  0.00     0.091 C 
ENDROOT
BRANCH   1   7
ATOM      7  O   LIG d   1      -2.825  90.755 117.327  0.00  0.00    -0.368 OA
BRANCH   7   8
ATOM      8  C   LIG d   1      -2.165  89.540 117.759  0.00  0.00     0.119 C 
BRANCH   8   9
ATOM      9  C   LIG d   1      -2.693  89.201 119.166  0.00  0.00     0.028 C 
ATOM     10  C   LIG d   1      -1.583  88.702 120.106  0.00  0.00     0.006 C 
ENDBRANCH   8   9
BRANCH   8  11
ATOM     11  C   LIG d   1      -0.659  89.757 117.933  0.00  0.00     0.028 C 
ATOM     12  C   LIG d   1      -0.239  91.221 117.728  0.00  0.00     0.006 C 
ENDBRANCH   8  11
ENDBRANCH   7   8
ENDBRANCH   1   7
BRANCH   6  13
ATOM     13  N   LIG d   1      -3.372  92.665 119.594  0.00  0.00    -0.311 N 
ATOM     14  C   LIG d   1      -2.334  93.494 119.685  0.00  0.00     0.210 C 
ATOM     15  C   LIG d   1      -1.618  93.487 121.039  0.00  0.00     0.109 C 
ATOM     16  O   LIG d   1      -1.959  94.259 118.784  0.00  0.00    -0.276 OA
ATOM     17  H   LIG d   1      -3.627  92.105 120.383  0.00  0.00     0.149 HD
ENDBRANCH   6  13
BRANCH   5  18
ATOM     18  N   LIG d   1      -5.777  94.401 118.861  0.00  0.00     0.381 N 
ATOM     19  H   LIG d   1      -5.621  94.934 118.029  0.00  0.00    -0.090 HD
ATOM     20  H   LIG d   1      -5.076  94.656 119.535  0.00  0.00    -0.090 HD
ATOM     21  H   LIG d   1      -6.683  94.597 119.225  0.00  0.00    -0.090 HD
ENDBRANCH   5  18
BRANCH   3  22
ATOM     22  C   LIG d   1      -7.352  90.806 116.117  0.00  0.00     0.382 C 
ATOM     23  O   LIG d   1      -8.110  91.532 115.431  0.00  0.00    -0.241 OA
ATOM     24  O   LIG d   1      -7.581  89.584 116.199  0.00  0.00    -0.241 OA
ENDBRANCH   3  22
TORSDOF 7
ENDMDL
MODEL 6
REMARK VINA RESULT:      -4.4      1.961      4.768
REMARK  7 active torsions:
REMARK  status: ('A' for Active; 'I' for Inactive)
REMARK    1  A    between atoms: C_2  and  C_3 
REMARK    2  A    between atoms: C_3  and  O_6 
REMARK    3  A    between atoms: C_3  and  C_4 
REMARK    4  A    between atoms: C_7  and  O_6 
REMARK    5  A    between atoms: C_9  and  C_10 
REMARK    6  A    between atoms: N_15  and  C_14 
REMARK    7  A    between atoms: N_20  and  C_19 
REMARK       I    between atoms: C_22  and  N_20 
ROOT
ATOM      1  C   LIG d   1      -1.490  90.532 117.323  0.00  0.00     0.161 C 
ATOM      2  C   LIG d   1      -0.403  91.115 117.995  0.00  0.00     0.016 C 
ATOM      3  C   LIG d   1      -0.494  92.325 118.720  0.00  0.00     0.038 C 
ATOM      4  C   LIG d   1      -1.724  92.961 118.949  0.00  0.00     0.028 C 
ATOM      5  C   LIG d   1      -2.761  92.681 117.867  0.00  0.00    -0.047 C 
ATOM      6  C   LIG d   1      -2.863  91.153 117.653  0.00  0.00     0.091 C 
ENDROOT
BRANCH   1   7
ATOM      7  O   LIG d   1      -1.511  89.112 117.566  0.00  0.00    -0.368 OA
BRANCH   7   8
ATOM      8  C   LIG d   1      -1.531  88.704 118.956  0.00  0.00     0.119 C 
BRANCH   8   9
ATOM      9  C   LIG d   1      -0.573  87.506 119.100  0.00  0.00     0.028 C 
ATOM     10  C   LIG d   1      -0.117  86.951 117.740  0.00  0.00     0.006 C 
ENDBRANCH   8   9
BRANCH   8  11
ATOM     11  C   LIG d   1      -2.909  88.172 119.360  0.00  0.00     0.028 C 
ATOM     12  C   LIG d   1      -2.827  86.971 120.317  0.00  0.00     0.006 C 
ENDBRANCH   8  11
ENDBRANCH   7   8
ENDBRANCH   1   7
BRANCH   6  13
ATOM     13  N   LIG d   1      -3.795  90.796 116.552  0.00  0.00    -0.311 N 
ATOM     14  C   LIG d   1      -5.072  90.472 116.749  0.00  0.00     0.210 C 
ATOM     15  C   LIG d   1      -5.852  90.118 115.479  0.00  0.00     0.109 C 
ATOM     16  O   LIG d   1      -5.641  90.477 117.851  0.00  0.00    -0.276 OA
ATOM     17  H   LIG d   1      -3.425  90.798 115.622  0.00  0.00     0.149 HD
ENDBRANCH   6  13
BRANCH   5  18
ATOM     18  N   LIG d   1      -4.033  93.290 118.300  0.00  0.00     0.381 N 
ATOM     19  H   LIG d   1      -3.925  94.282 118.377  0.00  0.00    -0.090 HD
ATOM     20  H   LIG d   1      -4.275  92.929 119.206  0.00  0.00    -0.090 HD
ATOM     21  H   LIG d   1      -4.753  93.077 117.646  0.00  0.00    -0.090 HD
ENDBRANCH   5  18
BRANCH   3  22
ATOM     22  C   LIG d   1       0.659  92.933 119.192  0.00  0.00     0.382 C 
ATOM     23  O   LIG d   1       0.920  92.917 120.419  0.00  0.00    -0.241 OA
ATOM     24  O   LIG d   1       1.420  93.535 118.411  0.00  0.00    -0.241 OA
ENDBRANCH   3  22
TORSDOF 7
ENDMDL
MODEL 7
REMARK VINA RESULT:      -4.4      2.949      4.282
REMARK  7 active torsions:
REMARK  status: ('A' for Active; 'I' for Inactive)
REMARK    1  A    between atoms: C_2  and  C_3 
REMARK    2  A    between atoms: C_3  and  O_6 
REMARK    3  A    between atoms: C_3  and  C_4 
REMARK    4  A    between atoms: C_7  and  O_6 
REMARK    5  A    between atoms: C_9  and  C_10 
REMARK    6  A    between atoms: N_15  and  C_14 
REMARK    7  A    between atoms: N_20  and  C_19 
REMARK       I    between atoms: C_22  and  N_20 
ROOT
ATOM      1  C   LIG d   1      -4.979  91.476 119.093  0.00  0.00     0.161 C 
ATOM      2  C   LIG d   1      -5.390  90.717 117.985  0.00  0.00     0.016 C 
ATOM      3  C   LIG d   1      -6.284  91.197 117.001  0.00  0.00     0.038 C 
ATOM      4  C   LIG d   1      -6.712  92.533 116.977  0.00  0.00     0.028 C 
ATOM      5  C   LIG d   1      -6.723  93.190 118.353  0.00  0.00    -0.047 C 
ATOM      6  C   LIG d   1      -5.348  92.973 119.024  0.00  0.00     0.091 C 
ENDROOT
BRANCH   1   7
ATOM      7  O   LIG d   1      -3.560  91.319 119.294  0.00  0.00    -0.368 OA
BRANCH   7   8
ATOM      8  C   LIG d   1      -3.128  90.040 119.819  0.00  0.00     0.119 C 
BRANCH   8   9
ATOM      9  C   LIG d   1      -2.498  90.296 121.202  0.00  0.00     0.028 C 
ATOM     10  C   LIG d   1      -2.161  91.780 121.427  0.00  0.00     0.006 C 
ENDBRANCH   8   9
BRANCH   8  11
ATOM     11  C   LIG d   1      -2.007  89.437 118.968  0.00  0.00     0.028 C 
ATOM     12  C   LIG d   1      -2.487  88.271 118.090  0.00  0.00     0.006 C 
ENDBRANCH   8  11
ENDBRANCH   7   8
ENDBRANCH   1   7
BRANCH   6  13
ATOM     13  N   LIG d   1      -5.301  93.512 120.408  0.00  0.00    -0.311 N 
ATOM     14  C   LIG d   1      -4.844  94.727 120.707  0.00  0.00     0.210 C 
ATOM     15  C   LIG d   1      -4.865  95.077 122.198  0.00  0.00     0.109 C 
ATOM     16  O   LIG d   1      -4.454  95.560 119.875  0.00  0.00    -0.276 OA
ATOM     17  H   LIG d   1      -5.628  92.914 121.142  0.00  0.00     0.149 HD
ENDBRANCH   6  13
BRANCH   5  18
ATOM     18  N   LIG d   1      -7.056  94.615 118.164  0.00  0.00     0.381 N 
ATOM     19  H   LIG d   1      -7.902  94.833 118.651  0.00  0.00    -0.090 HD
ATOM     20  H   LIG d   1      -7.202  94.787 117.184  0.00  0.00    -0.090 HD
ATOM     21  H   LIG d   1      -6.313  95.186 118.501  0.00  0.00    -0.090 HD
ENDBRANCH   5  18
BRANCH   3  22
ATOM     22  C   LIG d   1      -6.790  90.326 116.048  0.00  0.00     0.382 C 
ATOM     23  O   LIG d   1      -6.018  89.553 115.432  0.00  0.00    -0.241 OA
ATOM     24  O   LIG d   1      -8.003  90.334 115.767  0.00  0.00    -0.241 OA
ENDBRANCH   3  22
TORSDOF 7
ENDMDL
MODEL 8
REMARK VINA RESULT:      -4.3      2.354      4.390
REMARK  7 active torsions:
REMARK  status: ('A' for Active; 'I' for Inactive)
REMARK    1  A    between atoms: C_2  and  C_3 
REMARK    2  A    between atoms: C_3  and  O_6 
REMARK    3  A    between atoms: C_3  and  C_4 
REMARK    4  A    between atoms: C_7  and  O_6 
REMARK    5  A    between atoms: C_9  and  C_10 
REMARK    6  A    between atoms: N_15  and  C_14 
REMARK    7  A    between atoms: N_20  and  C_19 
REMARK       I    between atoms: C_22  and  N_20 
ROOT
ATOM      1  C   LIG d   1      -3.003  92.750 117.859  0.00  0.00     0.161 C 
ATOM      2  C   LIG d   1      -4.384  92.508 117.769  0.00  0.00     0.016 C 
ATOM      3  C   LIG d   1      -4.941  91.216 117.627  0.00  0.00     0.038 C 
ATOM      4  C   LIG d   1      -4.156  90.057 117.718  0.00  0.00     0.028 C 
ATOM      5  C   LIG d   1      -2.705  90.274 117.302  0.00  0.00    -0.047 C 
ATOM      6  C   LIG d   1      -2.139  91.490 118.071  0.00  0.00     0.091 C 
ENDROOT
BRANCH   1   7
ATOM      7  O   LIG d   1      -2.743  93.717 118.896  0.00  0.00    -0.368 OA
BRANCH   7   8
ATOM      8  C   LIG d   1      -3.787  93.887 119.885  0.00  0.00     0.119 C 
BRANCH   8   9
ATOM      9  C   LIG d   1      -3.915  95.396 120.169  0.00  0.00     0.028 C 
ATOM     10  C   LIG d   1      -5.357  95.904 120.002  0.00  0.00     0.006 C 
ENDBRANCH   8   9
BRANCH   8  11
ATOM     11  C   LIG d   1      -3.395  93.254 121.224  0.00  0.00     0.028 C 
ATOM     12  C   LIG d   1      -4.003  91.857 121.424  0.00  0.00     0.006 C 
ENDBRANCH   8  11
ENDBRANCH   7   8
ENDBRANCH   1   7
BRANCH   6  13
ATOM     13  N   LIG d   1      -0.750  91.823 117.662  0.00  0.00    -0.311 N 
ATOM     14  C   LIG d   1       0.330  91.372 118.298  0.00  0.00     0.210 C 
ATOM     15  C   LIG d   1       1.667  91.852 117.724  0.00  0.00     0.109 C 
ATOM     16  O   LIG d   1       0.309  90.594 119.264  0.00  0.00    -0.276 OA
ATOM     17  H   LIG d   1      -0.640  92.424 116.869  0.00  0.00     0.149 HD
ENDBRANCH   6  13
BRANCH   5  18
ATOM     18  N   LIG d   1      -1.971  89.024 117.576  0.00  0.00     0.381 N 
ATOM     19  H   LIG d   1      -0.986  89.199 117.561  0.00  0.00    -0.090 HD
ATOM     20  H   LIG d   1      -2.185  88.357 116.855  0.00  0.00    -0.090 HD
ATOM     21  H   LIG d   1      -2.238  88.660 118.465  0.00  0.00    -0.090 HD
ENDBRANCH   5  18
BRANCH   3  22
ATOM     22  C   LIG d   1      -6.292  91.077 117.351  0.00  0.00     0.382 C 
ATOM     23  O   LIG d   1      -6.714  90.036 116.791  0.00  0.00    -0.241 OA
ATOM     24  O   LIG d   1      -7.089  91.997 117.615  0.00  0.00    -0.241 OA
ENDBRANCH   3  22
TORSDOF 7
ENDMDL
MODEL 9
REMARK VINA RESULT:      -4.3      2.786      4.401
REMARK  7 active torsions:
REMARK  status: ('A' for Active; 'I' for Inactive)
REMARK    1  A    between atoms: C_2  and  C_3 
REMARK    2  A    between atoms: C_3  and  O_6 
REMARK    3  A    between atoms: C_3  and  C_4 
REMARK    4  A    between atoms: C_7  and  O_6 
REMARK    5  A    between atoms: C_9  and  C_10 
REMARK    6  A    between atoms: N_15  and  C_14 
REMARK    7  A    between atoms: N_20  and  C_19 
REMARK       I    between atoms: C_22  and  N_20 
ROOT
ATOM      1  C   LIG d   1      -3.973  91.861 118.356  0.00  0.00     0.161 C 
ATOM      2  C   LIG d   1      -4.561  91.025 117.393  0.00  0.00     0.016 C 
ATOM      3  C   LIG d   1      -5.932  91.075 117.052  0.00  0.00     0.038 C 
ATOM      4  C   LIG d   1      -6.783  92.076 117.546  0.00  0.00     0.028 C 
ATOM      5  C   LIG d   1      -6.350  92.624 118.901  0.00  0.00    -0.047 C 
ATOM      6  C   LIG d   1      -4.861  93.033 118.825  0.00  0.00     0.091 C 
ENDROOT
BRANCH   1   7
ATOM      7  O   LIG d   1      -2.709  92.354 117.869  0.00  0.00    -0.368 OA
BRANCH   7   8
ATOM      8  C   LIG d   1      -1.525  91.736 118.429  0.00  0.00     0.119 C 
BRANCH   8   9
ATOM      9  C   LIG d   1      -1.052  90.657 117.435  0.00  0.00     0.028 C 
ATOM     10  C   LIG d   1      -1.129  89.240 118.027  0.00  0.00     0.006 C 
ENDBRANCH   8   9
BRANCH   8  11
ATOM     11  C   LIG d   1      -1.848  90.982 119.722  0.00  0.00     0.028 C 
ATOM     12  C   LIG d   1      -1.255  91.657 120.969  0.00  0.00     0.006 C 
ENDBRANCH   8  11
ENDBRANCH   7   8
ENDBRANCH   1   7
BRANCH   6  13
ATOM     13  N   LIG d   1      -4.334  93.502 120.133  0.00  0.00    -0.311 N 
ATOM     14  C   LIG d   1      -4.297  94.784 120.491  0.00  0.00     0.210 C 
ATOM     15  C   LIG d   1      -3.696  95.052 121.874  0.00  0.00     0.109 C 
ATOM     16  O   LIG d   1      -4.734  95.722 119.808  0.00  0.00    -0.276 OA
ATOM     17  H   LIG d   1      -3.988  92.804 120.762  0.00  0.00     0.149 HD
ENDBRANCH   6  13
BRANCH   5  18
ATOM     18  N   LIG d   1      -7.243  93.751 119.232  0.00  0.00     0.381 N 
ATOM     19  H   LIG d   1      -6.750  94.615 119.128  0.00  0.00    -0.090 HD
ATOM     20  H   LIG d   1      -7.533  93.666 120.190  0.00  0.00    -0.090 HD
ATOM     21  H   LIG d   1      -8.040  93.741 118.634  0.00  0.00    -0.090 HD
ENDBRANCH   5  18
BRANCH   3  22
ATOM     22  C   LIG d   1      -6.474  90.093 116.237  0.00  0.00     0.382 C 
ATOM     23  O   LIG d   1      -7.689  89.793 116.340  0.00  0.00    -0.241 OA
ATOM     24  O   LIG d   1      -5.755  89.471 115.433  0.00  0.00    -0.241 OA
ENDBRANCH   3  22
TORSDOF 7
ENDMDL
