MODEL 1
REMARK VINA RESULT:      -5.4      0.000      0.000
REMARK  7 active torsions:
REMARK  status: ('A' for Active; 'I' for Inactive)
REMARK    1  A    between atoms: C_2  and  C_3 
REMARK    2  A    between atoms: C_3  and  O_6 
REMARK    3  A    between atoms: C_3  and  C_4 
REMARK    4  A    between atoms: C_7  and  O_6 
REMARK    5  A    between atoms: C_9  and  C_10 
REMARK    6  A    between atoms: N_15  and  C_14 
REMARK    7  A    between atoms: N_20  and  C_19 
REMARK       I    between atoms: C_22  and  N_20 
ROOT
ATOM      1  C   LIG d   1      -5.824  91.804 119.151  0.00  0.00     0.161 C 
ATOM      2  C   LIG d   1      -7.068  92.438 119.301  0.00  0.00     0.016 C 
ATOM      3  C   LIG d   1      -7.213  93.830 119.503  0.00  0.00     0.038 C 
ATOM      4  C   LIG d   1      -6.124  94.709 119.418  0.00  0.00     0.028 C 
ATOM      5  C   LIG d   1      -4.791  94.057 119.771  0.00  0.00    -0.047 C 
ATOM      6  C   LIG d   1      -4.631  92.761 118.944  0.00  0.00     0.091 C 
ENDROOT
BRANCH   1   7
ATOM      7  O   LIG d   1      -5.890  90.846 118.076  0.00  0.00    -0.368 OA
BRANCH   7   8
ATOM      8  C   LIG d   1      -5.674  91.369 116.742  0.00  0.00     0.119 C 
BRANCH   8   9
ATOM      9  C   LIG d   1      -7.058  91.598 116.105  0.00  0.00     0.028 C 
ATOM     10  C   LIG d   1      -7.706  90.289 115.622  0.00  0.00     0.006 C 
ENDBRANCH   8   9
BRANCH   8  11
ATOM     11  C   LIG d   1      -4.980  90.339 115.845  0.00  0.00     0.028 C 
ATOM     12  C   LIG d   1      -3.727  89.731 116.496  0.00  0.00     0.006 C 
ENDBRANCH   8  11
ENDBRANCH   7   8
ENDBRANCH   1   7
BRANCH   6  13
ATOM     13  N   LIG d   1      -3.392  92.017 119.290  0.00  0.00    -0.311 N 
ATOM     14  C   LIG d   1      -2.233  92.190 118.657  0.00  0.00     0.210 C 
ATOM     15  C   LIG d   1      -1.085  91.307 119.159  0.00  0.00     0.109 C 
ATOM     16  O   LIG d   1      -2.037  93.013 117.750  0.00  0.00    -0.276 OA
ATOM     17  H   LIG d   1      -3.453  91.351 120.035  0.00  0.00     0.149 HD
ENDBRANCH   6  13
BRANCH   5  18
ATOM     18  N   LIG d   1      -3.728  95.046 119.507  0.00  0.00     0.381 N 
ATOM     19  H   LIG d   1      -2.890  94.576 119.227  0.00  0.00    -0.090 HD
ATOM     20  H   LIG d   1      -3.537  95.551 120.354  0.00  0.00    -0.090 HD
ATOM     21  H   LIG d   1      -4.019  95.677 118.793  0.00  0.00    -0.090 HD
ENDBRANCH   5  18
BRANCH   3  22
ATOM     22  C   LIG d   1      -8.455  94.350 119.834  0.00  0.00     0.382 C 
ATOM     23  O   LIG d   1      -9.500  93.768 119.456  0.00  0.00    -0.241 OA
ATOM     24  O   LIG d   1      -8.544  95.418 120.468  0.00  0.00    -0.241 OA
ENDBRANCH   3  22
TORSDOF 7
ENDMDL
MODEL 2
REMARK VINA RESULT:      -5.2      2.237      3.986
REMARK  7 active torsions:
REMARK  status: ('A' for Active; 'I' for Inactive)
REMARK    1  A    between atoms: C_2  and  C_3 
REMARK    2  A    between atoms: C_3  and  O_6 
REMARK    3  A    between atoms: C_3  and  C_4 
REMARK    4  A    between atoms: C_7  and  O_6 
REMARK    5  A    between atoms: C_9  and  C_10 
REMARK    6  A    between atoms: N_15  and  C_14 
REMARK    7  A    between atoms: N_20  and  C_19 
REMARK       I    between atoms: C_22  and  N_20 
ROOT
ATOM      1  C   LIG d   1      -5.678  92.791 118.870  0.00  0.00     0.161 C 
ATOM      2  C   LIG d   1      -6.250  93.907 119.503  0.00  0.00     0.016 C 
ATOM      3  C   LIG d   1      -7.355  94.617 118.979  0.00  0.00     0.038 C 
ATOM      4  C   LIG d   1      -8.062  94.165 117.856  0.00  0.00     0.028 C 
ATOM      5  C   LIG d   1      -7.214  93.332 116.900  0.00  0.00    -0.047 C 
ATOM      6  C   LIG d   1      -6.505  92.216 117.701  0.00  0.00     0.091 C 
ENDROOT
BRANCH   1   7
ATOM      7  O   LIG d   1      -5.405  91.764 119.844  0.00  0.00    -0.368 OA
BRANCH   7   8
ATOM      8  C   LIG d   1      -4.023  91.629 120.257  0.00  0.00     0.119 C 
BRANCH   8   9
ATOM      9  C   LIG d   1      -3.150  92.312 119.185  0.00  0.00     0.028 C 
ATOM     10  C   LIG d   1      -2.198  93.360 119.785  0.00  0.00     0.006 C 
ENDBRANCH   8   9
BRANCH   8  11
ATOM     11  C   LIG d   1      -3.584  90.162 120.262  0.00  0.00     0.028 C 
ATOM     12  C   LIG d   1      -3.124  89.672 118.880  0.00  0.00     0.006 C 
ENDBRANCH   8  11
ENDBRANCH   7   8
ENDBRANCH   1   7
BRANCH   6  13
ATOM     13  N   LIG d   1      -5.589  91.406 116.857  0.00  0.00    -0.311 N 
ATOM     14  C   LIG d   1      -5.961  90.290 116.233  0.00  0.00     0.210 C 
ATOM     15  C   LIG d   1      -4.854  89.599 115.430  0.00  0.00     0.109 C 
ATOM     16  O   LIG d   1      -7.110  89.824 116.242  0.00  0.00    -0.276 OA
ATOM     17  H   LIG d   1      -4.645  91.729 116.769  0.00  0.00     0.149 HD
ENDBRANCH   6  13
BRANCH   5  18
ATOM     18  N   LIG d   1      -8.107  92.811 115.849  0.00  0.00     0.381 N 
ATOM     19  H   LIG d   1      -8.276  93.522 115.165  0.00  0.00    -0.090 HD
ATOM     20  H   LIG d   1      -8.986  92.559 116.265  0.00  0.00    -0.090 HD
ATOM     21  H   LIG d   1      -7.696  92.014 115.416  0.00  0.00    -0.090 HD
ENDBRANCH   5  18
BRANCH   3  22
ATOM     22  C   LIG d   1      -7.737  95.817 119.559  0.00  0.00     0.382 C 
ATOM     23  O   LIG d   1      -8.120  95.843 120.754  0.00  0.00    -0.241 OA
ATOM     24  O   LIG d   1      -7.748  96.868 118.889  0.00  0.00    -0.241 OA
ENDBRANCH   3  22
TORSDOF 7
ENDMDL
MODEL 3
REMARK VINA RESULT:      -5.1      2.269      5.826
REMARK  7 active torsions:
REMARK  status: ('A' for Active; 'I' for Inactive)
REMARK    1  A    between atoms: C_2  and  C_3 
REMARK    2  A    between atoms: C_3  and  O_6 
REMARK    3  A    between atoms: C_3  and  C_4 
REMARK    4  A    between atoms: C_7  and  O_6 
REMARK    5  A    between atoms: C_9  and  C_10 
REMARK    6  A    between atoms: N_15  and  C_14 
REMARK    7  A    between atoms: N_20  and  C_19 
REMARK       I    between atoms: C_22  and  N_20 
ROOT
ATOM      1  C   LIG d   1      -5.449  91.706 119.265  0.00  0.00     0.161 C 
ATOM      2  C   LIG d   1      -4.610  90.957 118.422  0.00  0.00     0.016 C 
ATOM      3  C   LIG d   1      -4.821  90.827 117.030  0.00  0.00     0.038 C 
ATOM      4  C   LIG d   1      -5.805  91.566 116.357  0.00  0.00     0.028 C 
ATOM      5  C   LIG d   1      -6.990  91.942 117.240  0.00  0.00    -0.047 C 
ATOM      6  C   LIG d   1      -6.463  92.609 118.531  0.00  0.00     0.091 C 
ENDROOT
BRANCH   1   7
ATOM      7  O   LIG d   1      -4.653  92.486 120.179  0.00  0.00    -0.368 OA
BRANCH   7   8
ATOM      8  C   LIG d   1      -4.041  93.680 119.632  0.00  0.00     0.119 C 
BRANCH   8   9
ATOM      9  C   LIG d   1      -2.513  93.510 119.744  0.00  0.00     0.028 C 
ATOM     10  C   LIG d   1      -1.805  93.657 118.387  0.00  0.00     0.006 C 
ENDBRANCH   8   9
BRANCH   8  11
ATOM     11  C   LIG d   1      -4.375  94.914 120.475  0.00  0.00     0.028 C 
ATOM     12  C   LIG d   1      -5.150  94.568 121.756  0.00  0.00     0.006 C 
ENDBRANCH   8  11
ENDBRANCH   7   8
ENDBRANCH   1   7
BRANCH   6  13
ATOM     13  N   LIG d   1      -7.553  92.931 119.488  0.00  0.00    -0.311 N 
ATOM     14  C   LIG d   1      -8.146  94.122 119.550  0.00  0.00     0.210 C 
ATOM     15  C   LIG d   1      -9.232  94.249 120.623  0.00  0.00     0.109 C 
ATOM     16  O   LIG d   1      -7.898  95.076 118.797  0.00  0.00    -0.276 OA
ATOM     17  H   LIG d   1      -7.838  92.205 120.116  0.00  0.00     0.149 HD
ENDBRANCH   6  13
BRANCH   5  18
ATOM     18  N   LIG d   1      -7.871  92.824 116.452  0.00  0.00     0.381 N 
ATOM     19  H   LIG d   1      -8.629  92.293 116.072  0.00  0.00    -0.090 HD
ATOM     20  H   LIG d   1      -7.345  93.212 115.690  0.00  0.00    -0.090 HD
ATOM     21  H   LIG d   1      -8.225  93.556 117.028  0.00  0.00    -0.090 HD
ENDBRANCH   5  18
BRANCH   3  22
ATOM     22  C   LIG d   1      -4.066  89.919 116.303  0.00  0.00     0.382 C 
ATOM     23  O   LIG d   1      -4.615  89.205 115.430  0.00  0.00    -0.241 OA
ATOM     24  O   LIG d   1      -2.852  89.775 116.539  0.00  0.00    -0.241 OA
ENDBRANCH   3  22
TORSDOF 7
ENDMDL
MODEL 4
REMARK VINA RESULT:      -5.0      2.265      4.165
REMARK  7 active torsions:
REMARK  status: ('A' for Active; 'I' for Inactive)
REMARK    1  A    between atoms: C_2  and  C_3 
REMARK    2  A    between atoms: C_3  and  O_6 
REMARK    3  A    between atoms: C_3  and  C_4 
REMARK    4  A    between atoms: C_7  and  O_6 
REMARK    5  A    between atoms: C_9  and  C_10 
REMARK    6  A    between atoms: N_15  and  C_14 
REMARK    7  A    between atoms: N_20  and  C_19 
REMARK       I    between atoms: C_22  and  N_20 
ROOT
ATOM      1  C   LIG d   1      -4.714  92.392 118.440  0.00  0.00     0.161 C 
ATOM      2  C   LIG d   1      -5.949  93.060 118.416  0.00  0.00     0.016 C 
ATOM      3  C   LIG d   1      -6.971  92.774 117.482  0.00  0.00     0.038 C 
ATOM      4  C   LIG d   1      -6.884  91.688 116.597  0.00  0.00     0.028 C 
ATOM      5  C   LIG d   1      -5.450  91.307 116.247  0.00  0.00    -0.047 C 
ATOM      6  C   LIG d   1      -4.644  91.131 117.554  0.00  0.00     0.091 C 
ENDROOT
BRANCH   1   7
ATOM      7  O   LIG d   1      -4.358  92.070 119.799  0.00  0.00    -0.368 OA
BRANCH   7   8
ATOM      8  C   LIG d   1      -3.240  92.804 120.356  0.00  0.00     0.119 C 
BRANCH   8   9
ATOM      9  C   LIG d   1      -2.624  93.642 119.219  0.00  0.00     0.028 C 
ATOM     10  C   LIG d   1      -1.176  93.230 118.905  0.00  0.00     0.006 C 
ENDBRANCH   8   9
BRANCH   8  11
ATOM     11  C   LIG d   1      -2.125  91.859 120.814  0.00  0.00     0.028 C 
ATOM     12  C   LIG d   1      -2.659  90.517 121.338  0.00  0.00     0.006 C 
ENDBRANCH   8  11
ENDBRANCH   7   8
ENDBRANCH   1   7
BRANCH   6  13
ATOM     13  N   LIG d   1      -3.209  90.838 117.300  0.00  0.00    -0.311 N 
ATOM     14  C   LIG d   1      -2.599  89.733 117.724  0.00  0.00     0.210 C 
ATOM     15  C   LIG d   1      -1.112  89.639 117.371  0.00  0.00     0.109 C 
ATOM     16  O   LIG d   1      -3.157  88.806 118.330  0.00  0.00    -0.276 OA
ATOM     17  H   LIG d   1      -2.688  91.523 116.787  0.00  0.00     0.149 HD
ENDBRANCH   6  13
BRANCH   5  18
ATOM     18  N   LIG d   1      -5.503  90.079 115.430  0.00  0.00     0.381 N 
ATOM     19  H   LIG d   1      -4.751  89.470 115.686  0.00  0.00    -0.090 HD
ATOM     20  H   LIG d   1      -5.392  90.328 114.463  0.00  0.00    -0.090 HD
ATOM     21  H   LIG d   1      -6.375  89.617 115.564  0.00  0.00    -0.090 HD
ENDBRANCH   5  18
BRANCH   3  22
ATOM     22  C   LIG d   1      -8.080  93.603 117.400  0.00  0.00     0.382 C 
ATOM     23  O   LIG d   1      -8.550  94.125 118.440  0.00  0.00    -0.241 OA
ATOM     24  O   LIG d   1      -8.641  93.800 116.306  0.00  0.00    -0.241 OA
ENDBRANCH   3  22
TORSDOF 7
ENDMDL
MODEL 5
REMARK VINA RESULT:      -4.9      2.203      5.172
REMARK  7 active torsions:
REMARK  status: ('A' for Active; 'I' for Inactive)
REMARK    1  A    between atoms: C_2  and  C_3 
REMARK    2  A    between atoms: C_3  and  O_6 
REMARK    3  A    between atoms: C_3  and  C_4 
REMARK    4  A    between atoms: C_7  and  O_6 
REMARK    5  A    between atoms: C_9  and  C_10 
REMARK    6  A    between atoms: N_15  and  C_14 
REMARK    7  A    between atoms: N_20  and  C_19 
REMARK       I    between atoms: C_22  and  N_20 
ROOT
ATOM      1  C   LIG d   1      -6.461  92.300 119.305  0.00  0.00     0.161 C 
ATOM      2  C   LIG d   1      -6.354  91.429 118.208  0.00  0.00     0.016 C 
ATOM      3  C   LIG d   1      -6.858  91.732 116.922  0.00  0.00     0.038 C 
ATOM      4  C   LIG d   1      -7.372  92.998 116.606  0.00  0.00     0.028 C 
ATOM      5  C   LIG d   1      -7.959  93.730 117.808  0.00  0.00    -0.047 C 
ATOM      6  C   LIG d   1      -6.920  93.731 118.952  0.00  0.00     0.091 C 
ENDROOT
BRANCH   1   7
ATOM      7  O   LIG d   1      -5.212  92.337 120.023  0.00  0.00    -0.368 OA
BRANCH   7   8
ATOM      8  C   LIG d   1      -4.030  91.980 119.265  0.00  0.00     0.119 C 
BRANCH   8   9
ATOM      9  C   LIG d   1      -3.266  90.914 120.074  0.00  0.00     0.028 C 
ATOM     10  C   LIG d   1      -3.225  89.553 119.359  0.00  0.00     0.006 C 
ENDBRANCH   8   9
BRANCH   8  11
ATOM     11  C   LIG d   1      -3.067  93.165 119.144  0.00  0.00     0.028 C 
ATOM     12  C   LIG d   1      -2.046  92.989 118.008  0.00  0.00     0.006 C 
ENDBRANCH   8  11
ENDBRANCH   7   8
ENDBRANCH   1   7
BRANCH   6  13
ATOM     13  N   LIG d   1      -7.445  94.354 120.195  0.00  0.00    -0.311 N 
ATOM     14  C   LIG d   1      -8.718  94.266 120.578  0.00  0.00     0.210 C 
ATOM     15  C   LIG d   1      -9.053  94.998 121.881  0.00  0.00     0.109 C 
ATOM     16  O   LIG d   1      -9.594  93.624 119.979  0.00  0.00    -0.276 OA
ATOM     17  H   LIG d   1      -6.796  94.867 120.758  0.00  0.00     0.149 HD
ENDBRANCH   6  13
BRANCH   5  18
ATOM     18  N   LIG d   1      -8.332  95.087 117.365  0.00  0.00     0.381 N 
ATOM     19  H   LIG d   1      -9.239  95.068 116.942  0.00  0.00    -0.090 HD
ATOM     20  H   LIG d   1      -7.669  95.397 116.677  0.00  0.00    -0.090 HD
ATOM     21  H   LIG d   1      -8.333  95.711 118.142  0.00  0.00    -0.090 HD
ENDBRANCH   5  18
BRANCH   3  22
ATOM     22  C   LIG d   1      -6.886  90.747 115.946  0.00  0.00     0.382 C 
ATOM     23  O   LIG d   1      -5.815  90.232 115.544  0.00  0.00    -0.241 OA
ATOM     24  O   LIG d   1      -7.965  90.399 115.430  0.00  0.00    -0.241 OA
ENDBRANCH   3  22
TORSDOF 7
ENDMDL
MODEL 6
REMARK VINA RESULT:      -4.9      2.187      4.656
REMARK  7 active torsions:
REMARK  status: ('A' for Active; 'I' for Inactive)
REMARK    1  A    between atoms: C_2  and  C_3 
REMARK    2  A    between atoms: C_3  and  O_6 
REMARK    3  A    between atoms: C_3  and  C_4 
REMARK    4  A    between atoms: C_7  and  O_6 
REMARK    5  A    between atoms: C_9  and  C_10 
REMARK    6  A    between atoms: N_15  and  C_14 
REMARK    7  A    between atoms: N_20  and  C_19 
REMARK       I    between atoms: C_22  and  N_20 
ROOT
ATOM      1  C   LIG d   1      -5.376  92.205 119.158  0.00  0.00     0.161 C 
ATOM      2  C   LIG d   1      -5.640  91.205 118.207  0.00  0.00     0.016 C 
ATOM      3  C   LIG d   1      -6.571  91.358 117.154  0.00  0.00     0.038 C 
ATOM      4  C   LIG d   1      -7.195  92.586 116.889  0.00  0.00     0.028 C 
ATOM      5  C   LIG d   1      -7.340  93.471 118.123  0.00  0.00    -0.047 C 
ATOM      6  C   LIG d   1      -5.965  93.590 118.819  0.00  0.00     0.091 C 
ENDROOT
BRANCH   1   7
ATOM      7  O   LIG d   1      -3.956  92.305 119.380  0.00  0.00    -0.368 OA
BRANCH   7   8
ATOM      8  C   LIG d   1      -3.113  92.091 118.222  0.00  0.00     0.119 C 
BRANCH   8   9
ATOM      9  C   LIG d   1      -2.284  90.818 118.481  0.00  0.00     0.028 C 
ATOM     10  C   LIG d   1      -2.354  89.823 117.310  0.00  0.00     0.006 C 
ENDBRANCH   8   9
BRANCH   8  11
ATOM     11  C   LIG d   1      -2.087  93.217 118.063  0.00  0.00     0.028 C 
ATOM     12  C   LIG d   1      -2.240  94.316 119.127  0.00  0.00     0.006 C 
ENDBRANCH   8  11
ENDBRANCH   7   8
ENDBRANCH   1   7
BRANCH   6  13
ATOM     13  N   LIG d   1      -6.036  94.370 120.082  0.00  0.00    -0.311 N 
ATOM     14  C   LIG d   1      -5.817  95.683 120.147  0.00  0.00     0.210 C 
ATOM     15  C   LIG d   1      -5.920  96.287 121.551  0.00  0.00     0.109 C 
ATOM     16  O   LIG d   1      -5.580  96.409 119.170  0.00  0.00    -0.276 OA
ATOM     17  H   LIG d   1      -6.254  93.865 120.919  0.00  0.00     0.149 HD
ENDBRANCH   6  13
BRANCH   5  18
ATOM     18  N   LIG d   1      -7.879  94.770 117.679  0.00  0.00     0.381 N 
ATOM     19  H   LIG d   1      -7.277  95.509 117.985  0.00  0.00    -0.090 HD
ATOM     20  H   LIG d   1      -8.783  94.906 118.095  0.00  0.00    -0.090 HD
ATOM     21  H   LIG d   1      -7.956  94.786 116.685  0.00  0.00    -0.090 HD
ENDBRANCH   5  18
BRANCH   3  22
ATOM     22  C   LIG d   1      -6.916  90.263 116.377  0.00  0.00     0.382 C 
ATOM     23  O   LIG d   1      -6.173  89.907 115.430  0.00  0.00    -0.241 OA
ATOM     24  O   LIG d   1      -7.982  89.653 116.582  0.00  0.00    -0.241 OA
ENDBRANCH   3  22
TORSDOF 7
ENDMDL
MODEL 7
REMARK VINA RESULT:      -4.6      2.375      4.200
REMARK  7 active torsions:
REMARK  status: ('A' for Active; 'I' for Inactive)
REMARK    1  A    between atoms: C_2  and  C_3 
REMARK    2  A    between atoms: C_3  and  O_6 
REMARK    3  A    between atoms: C_3  and  C_4 
REMARK    4  A    between atoms: C_7  and  O_6 
REMARK    5  A    between atoms: C_9  and  C_10 
REMARK    6  A    between atoms: N_15  and  C_14 
REMARK    7  A    between atoms: N_20  and  C_19 
REMARK       I    between atoms: C_22  and  N_20 
ROOT
ATOM      1  C   LIG d   1      -3.838  91.102 118.004  0.00  0.00     0.161 C 
ATOM      2  C   LIG d   1      -4.859  90.686 117.134  0.00  0.00     0.016 C 
ATOM      3  C   LIG d   1      -6.082  91.379 116.981  0.00  0.00     0.038 C 
ATOM      4  C   LIG d   1      -6.306  92.627 117.580  0.00  0.00     0.028 C 
ATOM      5  C   LIG d   1      -5.507  92.836 118.862  0.00  0.00    -0.047 C 
ATOM      6  C   LIG d   1      -4.020  92.521 118.583  0.00  0.00     0.091 C 
ENDROOT
BRANCH   1   7
ATOM      7  O   LIG d   1      -2.560  90.989 117.348  0.00  0.00    -0.368 OA
BRANCH   7   8
ATOM      8  C   LIG d   1      -1.586  90.132 117.993  0.00  0.00     0.119 C 
BRANCH   8   9
ATOM      9  C   LIG d   1      -0.198  90.508 117.436  0.00  0.00     0.028 C 
ATOM     10  C   LIG d   1       0.682  91.214 118.482  0.00  0.00     0.006 C 
ENDBRANCH   8   9
BRANCH   8  11
ATOM     11  C   LIG d   1      -1.793  88.664 117.608  0.00  0.00     0.028 C 
ATOM     12  C   LIG d   1      -0.495  87.979 117.152  0.00  0.00     0.006 C 
ENDBRANCH   8  11
ENDBRANCH   7   8
ENDBRANCH   1   7
BRANCH   6  13
ATOM     13  N   LIG d   1      -3.180  92.619 119.805  0.00  0.00    -0.311 N 
ATOM     14  C   LIG d   1      -2.049  93.319 119.863  0.00  0.00     0.210 C 
ATOM     15  C   LIG d   1      -1.327  93.271 121.214  0.00  0.00     0.109 C 
ATOM     16  O   LIG d   1      -1.591  94.002 118.934  0.00  0.00    -0.276 OA
ATOM     17  H   LIG d   1      -3.494  92.122 120.615  0.00  0.00     0.149 HD
ENDBRANCH   6  13
BRANCH   5  18
ATOM     18  N   LIG d   1      -5.730  94.226 119.305  0.00  0.00     0.381 N 
ATOM     19  H   LIG d   1      -5.665  94.845 118.522  0.00  0.00    -0.090 HD
ATOM     20  H   LIG d   1      -5.015  94.475 119.965  0.00  0.00    -0.090 HD
ATOM     21  H   LIG d   1      -6.628  94.308 119.730  0.00  0.00    -0.090 HD
ENDBRANCH   5  18
BRANCH   3  22
ATOM     22  C   LIG d   1      -7.112  90.804 116.252  0.00  0.00     0.382 C 
ATOM     23  O   LIG d   1      -7.079  89.579 115.980  0.00  0.00    -0.241 OA
ATOM     24  O   LIG d   1      -8.051  91.502 115.826  0.00  0.00    -0.241 OA
ENDBRANCH   3  22
TORSDOF 7
ENDMDL
MODEL 8
REMARK VINA RESULT:      -4.5      2.497      4.550
REMARK  7 active torsions:
REMARK  status: ('A' for Active; 'I' for Inactive)
REMARK    1  A    between atoms: C_2  and  C_3 
REMARK    2  A    between atoms: C_3  and  O_6 
REMARK    3  A    between atoms: C_3  and  C_4 
REMARK    4  A    between atoms: C_7  and  O_6 
REMARK    5  A    between atoms: C_9  and  C_10 
REMARK    6  A    between atoms: N_15  and  C_14 
REMARK    7  A    between atoms: N_20  and  C_19 
REMARK       I    between atoms: C_22  and  N_20 
ROOT
ATOM      1  C   LIG d   1      -4.744  91.803 118.833  0.00  0.00     0.161 C 
ATOM      2  C   LIG d   1      -5.870  92.035 118.026  0.00  0.00     0.016 C 
ATOM      3  C   LIG d   1      -6.075  91.406 116.776  0.00  0.00     0.038 C 
ATOM      4  C   LIG d   1      -5.235  90.382 116.315  0.00  0.00     0.028 C 
ATOM      5  C   LIG d   1      -3.813  90.474 116.859  0.00  0.00    -0.047 C 
ATOM      6  C   LIG d   1      -3.872  90.606 118.398  0.00  0.00     0.091 C 
ENDROOT
BRANCH   1   7
ATOM      7  O   LIG d   1      -5.149  91.654 120.208  0.00  0.00    -0.368 OA
BRANCH   7   8
ATOM      8  C   LIG d   1      -4.851  92.767 121.085  0.00  0.00     0.119 C 
BRANCH   8   9
ATOM      9  C   LIG d   1      -6.159  93.555 121.294  0.00  0.00     0.028 C 
ATOM     10  C   LIG d   1      -6.104  94.960 120.670  0.00  0.00     0.006 C 
ENDBRANCH   8   9
BRANCH   8  11
ATOM     11  C   LIG d   1      -3.884  93.754 120.424  0.00  0.00     0.028 C 
ATOM     12  C   LIG d   1      -2.471  93.696 121.023  0.00  0.00     0.006 C 
ENDBRANCH   8  11
ENDBRANCH   7   8
ENDBRANCH   1   7
BRANCH   6  13
ATOM     13  N   LIG d   1      -2.527  90.786 119.003  0.00  0.00    -0.311 N 
ATOM     14  C   LIG d   1      -1.807  89.783 119.503  0.00  0.00     0.210 C 
ATOM     15  C   LIG d   1      -0.456  90.190 120.098  0.00  0.00     0.109 C 
ATOM     16  O   LIG d   1      -2.147  88.590 119.482  0.00  0.00    -0.276 OA
ATOM     17  H   LIG d   1      -2.161  91.718 119.033  0.00  0.00     0.149 HD
ENDBRANCH   6  13
BRANCH   5  18
ATOM     18  N   LIG d   1      -3.086  89.272 116.409  0.00  0.00     0.381 N 
ATOM     19  H   LIG d   1      -3.450  88.964 115.530  0.00  0.00    -0.090 HD
ATOM     20  H   LIG d   1      -3.223  88.538 117.082  0.00  0.00    -0.090 HD
ATOM     21  H   LIG d   1      -2.114  89.474 116.322  0.00  0.00    -0.090 HD
ENDBRANCH   5  18
BRANCH   3  22
ATOM     22  C   LIG d   1      -7.109  91.830 115.955  0.00  0.00     0.382 C 
ATOM     23  O   LIG d   1      -8.061  91.055 115.696  0.00  0.00    -0.241 OA
ATOM     24  O   LIG d   1      -7.079  92.961 115.435  0.00  0.00    -0.241 OA
ENDBRANCH   3  22
TORSDOF 7
ENDMDL
MODEL 9
REMARK VINA RESULT:      -4.5      2.407      4.871
REMARK  7 active torsions:
REMARK  status: ('A' for Active; 'I' for Inactive)
REMARK    1  A    between atoms: C_2  and  C_3 
REMARK    2  A    between atoms: C_3  and  O_6 
REMARK    3  A    between atoms: C_3  and  C_4 
REMARK    4  A    between atoms: C_7  and  O_6 
REMARK    5  A    between atoms: C_9  and  C_10 
REMARK    6  A    between atoms: N_15  and  C_14 
REMARK    7  A    between atoms: N_20  and  C_19 
REMARK       I    between atoms: C_22  and  N_20 
ROOT
ATOM      1  C   LIG d   1      -3.297  92.555 118.471  0.00  0.00     0.161 C 
ATOM      2  C   LIG d   1      -2.358  92.549 119.516  0.00  0.00     0.016 C 
ATOM      3  C   LIG d   1      -2.713  92.632 120.882  0.00  0.00     0.038 C 
ATOM      4  C   LIG d   1      -4.049  92.573 121.305  0.00  0.00     0.028 C 
ATOM      5  C   LIG d   1      -5.038  93.087 120.263  0.00  0.00    -0.047 C 
ATOM      6  C   LIG d   1      -4.763  92.378 118.918  0.00  0.00     0.091 C 
ENDROOT
BRANCH   1   7
ATOM      7  O   LIG d   1      -2.947  91.554 117.494  0.00  0.00    -0.368 OA
BRANCH   7   8
ATOM      8  C   LIG d   1      -3.598  90.268 117.637  0.00  0.00     0.119 C 
BRANCH   8   9
ATOM      9  C   LIG d   1      -2.639  89.347 118.416  0.00  0.00     0.028 C 
ATOM     10  C   LIG d   1      -3.212  88.919 119.778  0.00  0.00     0.006 C 
ENDBRANCH   8   9
BRANCH   8  11
ATOM     11  C   LIG d   1      -3.798  89.590 116.279  0.00  0.00     0.028 C 
ATOM     12  C   LIG d   1      -5.117  89.992 115.600  0.00  0.00     0.006 C 
ENDBRANCH   8  11
ENDBRANCH   7   8
ENDBRANCH   1   7
BRANCH   6  13
ATOM     13  N   LIG d   1      -5.631  92.884 117.823  0.00  0.00    -0.311 N 
ATOM     14  C   LIG d   1      -6.793  92.324 117.490  0.00  0.00     0.210 C 
ATOM     15  C   LIG d   1      -7.520  92.991 116.319  0.00  0.00     0.109 C 
ATOM     16  O   LIG d   1      -7.306  91.358 118.075  0.00  0.00    -0.276 OA
ATOM     17  H   LIG d   1      -5.306  93.684 117.316  0.00  0.00     0.149 HD
ENDBRANCH   6  13
BRANCH   5  18
ATOM     18  N   LIG d   1      -6.397  92.841 120.780  0.00  0.00     0.381 N 
ATOM     19  H   LIG d   1      -6.517  91.865 120.966  0.00  0.00    -0.090 HD
ATOM     20  H   LIG d   1      -7.065  93.112 120.079  0.00  0.00    -0.090 HD
ATOM     21  H   LIG d   1      -6.546  93.366 121.613  0.00  0.00    -0.090 HD
ENDBRANCH   5  18
BRANCH   3  22
ATOM     22  C   LIG d   1      -1.727  92.815 121.838  0.00  0.00     0.382 C 
ATOM     23  O   LIG d   1      -0.627  92.222 121.727  0.00  0.00    -0.241 OA
ATOM     24  O   LIG d   1      -1.939  93.531 122.835  0.00  0.00    -0.241 OA
ENDBRANCH   3  22
TORSDOF 7
ENDMDL
