MODEL 1
REMARK VINA RESULT:      -5.3      0.000      0.000
REMARK  7 active torsions:
REMARK  status: ('A' for Active; 'I' for Inactive)
REMARK    1  A    between atoms: C_2  and  C_3 
REMARK    2  A    between atoms: C_3  and  O_6 
REMARK    3  A    between atoms: C_3  and  C_4 
REMARK    4  A    between atoms: C_7  and  O_6 
REMARK    5  A    between atoms: C_9  and  C_10 
REMARK    6  A    between atoms: N_15  and  C_14 
REMARK    7  A    between atoms: N_20  and  C_19 
REMARK       I    between atoms: C_22  and  N_20 
ROOT
ATOM      1  C   LIG d   1      -4.550  91.979 118.654  0.00  0.00     0.161 C 
ATOM      2  C   LIG d   1      -5.857  92.493 118.673  0.00  0.00     0.016 C 
ATOM      3  C   LIG d   1      -6.833  92.174 117.700  0.00  0.00     0.038 C 
ATOM      4  C   LIG d   1      -6.611  91.195 116.721  0.00  0.00     0.028 C 
ATOM      5  C   LIG d   1      -5.140  91.022 116.359  0.00  0.00    -0.047 C 
ATOM      6  C   LIG d   1      -4.324  90.823 117.657  0.00  0.00     0.091 C 
ENDROOT
BRANCH   1   7
ATOM      7  O   LIG d   1      -4.164  91.576 119.983  0.00  0.00    -0.368 OA
BRANCH   7   8
ATOM      8  C   LIG d   1      -3.102  92.346 120.599  0.00  0.00     0.119 C 
BRANCH   8   9
ATOM      9  C   LIG d   1      -2.677  93.434 119.594  0.00  0.00     0.028 C 
ATOM     10  C   LIG d   1      -1.176  93.373 119.264  0.00  0.00     0.006 C 
ENDBRANCH   8   9
BRANCH   8  11
ATOM     11  C   LIG d   1      -1.852  91.490 120.824  0.00  0.00     0.028 C 
ATOM     12  C   LIG d   1      -2.172  90.117 121.434  0.00  0.00     0.006 C 
ENDBRANCH   8  11
ENDBRANCH   7   8
ENDBRANCH   1   7
BRANCH   6  13
ATOM     13  N   LIG d   1      -2.863  90.730 117.400  0.00  0.00    -0.311 N 
ATOM     14  C   LIG d   1      -2.135  89.654 117.691  0.00  0.00     0.210 C 
ATOM     15  C   LIG d   1      -0.643  89.775 117.363  0.00  0.00     0.109 C 
ATOM     16  O   LIG d   1      -2.587  88.599 118.161  0.00  0.00    -0.276 OA
ATOM     17  H   LIG d   1      -2.420  91.530 116.992  0.00  0.00     0.149 HD
ENDBRANCH   6  13
BRANCH   5  18
ATOM     18  N   LIG d   1      -5.040  89.879 115.432  0.00  0.00     0.381 N 
ATOM     19  H   LIG d   1      -4.080  89.708 115.207  0.00  0.00    -0.090 HD
ATOM     20  H   LIG d   1      -5.527  90.105 114.583  0.00  0.00    -0.090 HD
ATOM     21  H   LIG d   1      -5.441  89.067 115.848  0.00  0.00    -0.090 HD
ENDBRANCH   5  18
BRANCH   3  22
ATOM     22  C   LIG d   1      -8.033  92.868 117.678  0.00  0.00     0.382 C 
ATOM     23  O   LIG d   1      -8.492  93.361 118.736  0.00  0.00    -0.241 OA
ATOM     24  O   LIG d   1      -8.684  92.970 116.621  0.00  0.00    -0.241 OA
ENDBRANCH   3  22
TORSDOF 7
ENDMDL
MODEL 2
REMARK VINA RESULT:      -4.6      2.234      3.787
REMARK  7 active torsions:
REMARK  status: ('A' for Active; 'I' for Inactive)
REMARK    1  A    between atoms: C_2  and  C_3 
REMARK    2  A    between atoms: C_3  and  O_6 
REMARK    3  A    between atoms: C_3  and  C_4 
REMARK    4  A    between atoms: C_7  and  O_6 
REMARK    5  A    between atoms: C_9  and  C_10 
REMARK    6  A    between atoms: N_15  and  C_14 
REMARK    7  A    between atoms: N_20  and  C_19 
REMARK       I    between atoms: C_22  and  N_20 
ROOT
ATOM      1  C   LIG d   1      -3.696  91.023 118.331  0.00  0.00     0.161 C 
ATOM      2  C   LIG d   1      -4.637  90.730 117.331  0.00  0.00     0.016 C 
ATOM      3  C   LIG d   1      -5.955  91.244 117.327  0.00  0.00     0.038 C 
ATOM      4  C   LIG d   1      -6.375  92.214 118.250  0.00  0.00     0.028 C 
ATOM      5  C   LIG d   1      -5.620  92.157 119.574  0.00  0.00    -0.047 C 
ATOM      6  C   LIG d   1      -4.101  92.166 119.286  0.00  0.00     0.091 C 
ENDROOT
BRANCH   1   7
ATOM      7  O   LIG d   1      -2.416  91.302 117.731  0.00  0.00    -0.368 OA
BRANCH   7   8
ATOM      8  C   LIG d   1      -1.341  90.390 118.070  0.00  0.00     0.119 C 
BRANCH   8   9
ATOM      9  C   LIG d   1      -0.024  91.028 117.587  0.00  0.00     0.028 C 
ATOM     10  C   LIG d   1       0.599  91.958 118.642  0.00  0.00     0.006 C 
ENDBRANCH   8   9
BRANCH   8  11
ATOM     11  C   LIG d   1      -1.462  89.074 117.296  0.00  0.00     0.028 C 
ATOM     12  C   LIG d   1      -0.104  88.537 116.817  0.00  0.00     0.006 C 
ENDBRANCH   8  11
ENDBRANCH   7   8
ENDBRANCH   1   7
BRANCH   6  13
ATOM     13  N   LIG d   1      -3.289  92.028 120.523  0.00  0.00    -0.311 N 
ATOM     14  C   LIG d   1      -2.309  92.868 120.854  0.00  0.00     0.210 C 
ATOM     15  C   LIG d   1      -1.585  92.532 122.161  0.00  0.00     0.109 C 
ATOM     16  O   LIG d   1      -1.993  93.877 120.206  0.00  0.00    -0.276 OA
ATOM     17  H   LIG d   1      -3.499  91.255 121.123  0.00  0.00     0.149 HD
ENDBRANCH   6  13
BRANCH   5  18
ATOM     18  N   LIG d   1      -6.061  93.305 120.388  0.00  0.00     0.381 N 
ATOM     19  H   LIG d   1      -6.244  94.090 119.795  0.00  0.00    -0.090 HD
ATOM     20  H   LIG d   1      -5.324  93.555 121.024  0.00  0.00    -0.090 HD
ATOM     21  H   LIG d   1      -6.883  93.066 120.898  0.00  0.00    -0.090 HD
ENDBRANCH   5  18
BRANCH   3  22
ATOM     22  C   LIG d   1      -6.879  90.758 116.415  0.00  0.00     0.382 C 
ATOM     23  O   LIG d   1      -7.932  91.402 116.186  0.00  0.00    -0.241 OA
ATOM     24  O   LIG d   1      -6.696  89.662 115.853  0.00  0.00    -0.241 OA
ENDBRANCH   3  22
TORSDOF 7
ENDMDL
MODEL 3
REMARK VINA RESULT:      -4.6      2.715      4.204
REMARK  7 active torsions:
REMARK  status: ('A' for Active; 'I' for Inactive)
REMARK    1  A    between atoms: C_2  and  C_3 
REMARK    2  A    between atoms: C_3  and  O_6 
REMARK    3  A    between atoms: C_3  and  C_4 
REMARK    4  A    between atoms: C_7  and  O_6 
REMARK    5  A    between atoms: C_9  and  C_10 
REMARK    6  A    between atoms: N_15  and  C_14 
REMARK    7  A    between atoms: N_20  and  C_19 
REMARK       I    between atoms: C_22  and  N_20 
ROOT
ATOM      1  C   LIG d   1      -5.071  91.804 118.794  0.00  0.00     0.161 C 
ATOM      2  C   LIG d   1      -5.389  91.027 117.668  0.00  0.00     0.016 C 
ATOM      3  C   LIG d   1      -6.519  91.265 116.852  0.00  0.00     0.038 C 
ATOM      4  C   LIG d   1      -7.329  92.398 117.021  0.00  0.00     0.028 C 
ATOM      5  C   LIG d   1      -7.339  92.928 118.451  0.00  0.00    -0.047 C 
ATOM      6  C   LIG d   1      -5.880  93.110 118.928  0.00  0.00     0.091 C 
ENDROOT
BRANCH   1   7
ATOM      7  O   LIG d   1      -3.657  92.086 118.808  0.00  0.00    -0.368 OA
BRANCH   7   8
ATOM      8  C   LIG d   1      -2.809  91.068 119.394  0.00  0.00     0.119 C 
BRANCH   8   9
ATOM      9  C   LIG d   1      -1.800  91.780 120.315  0.00  0.00     0.028 C 
ATOM     10  C   LIG d   1      -2.151  93.260 120.538  0.00  0.00     0.006 C 
ENDBRANCH   8   9
BRANCH   8  11
ATOM     11  C   LIG d   1      -1.962  90.367 118.328  0.00  0.00     0.028 C 
ATOM     12  C   LIG d   1      -2.275  88.867 118.209  0.00  0.00     0.006 C 
ENDBRANCH   8  11
ENDBRANCH   7   8
ENDBRANCH   1   7
BRANCH   6  13
ATOM     13  N   LIG d   1      -5.798  93.546 120.347  0.00  0.00    -0.311 N 
ATOM     14  C   LIG d   1      -5.406  94.764 120.718  0.00  0.00     0.210 C 
ATOM     15  C   LIG d   1      -5.375  95.000 122.231  0.00  0.00     0.109 C 
ATOM     16  O   LIG d   1      -5.113  95.681 119.936  0.00  0.00    -0.276 OA
ATOM     17  H   LIG d   1      -6.049  92.875 121.046  0.00  0.00     0.149 HD
ENDBRANCH   6  13
BRANCH   5  18
ATOM     18  N   LIG d   1      -8.110  94.186 118.454  0.00  0.00     0.381 N 
ATOM     19  H   LIG d   1      -8.488  94.349 119.366  0.00  0.00    -0.090 HD
ATOM     20  H   LIG d   1      -8.874  94.101 117.807  0.00  0.00    -0.090 HD
ATOM     21  H   LIG d   1      -7.523  94.946 118.189  0.00  0.00    -0.090 HD
ENDBRANCH   5  18
BRANCH   3  22
ATOM     22  C   LIG d   1      -6.871  90.342 115.879  0.00  0.00     0.382 C 
ATOM     23  O   LIG d   1      -8.058  90.277 115.477  0.00  0.00    -0.241 OA
ATOM     24  O   LIG d   1      -6.027  89.544 115.430  0.00  0.00    -0.241 OA
ENDBRANCH   3  22
TORSDOF 7
ENDMDL
MODEL 4
REMARK VINA RESULT:      -4.5      2.654      3.864
REMARK  7 active torsions:
REMARK  status: ('A' for Active; 'I' for Inactive)
REMARK    1  A    between atoms: C_2  and  C_3 
REMARK    2  A    between atoms: C_3  and  O_6 
REMARK    3  A    between atoms: C_3  and  C_4 
REMARK    4  A    between atoms: C_7  and  O_6 
REMARK    5  A    between atoms: C_9  and  C_10 
REMARK    6  A    between atoms: N_15  and  C_14 
REMARK    7  A    between atoms: N_20  and  C_19 
REMARK       I    between atoms: C_22  and  N_20 
ROOT
ATOM      1  C   LIG d   1      -5.044  92.729 119.512  0.00  0.00     0.161 C 
ATOM      2  C   LIG d   1      -5.268  93.654 120.546  0.00  0.00     0.016 C 
ATOM      3  C   LIG d   1      -6.453  94.417 120.664  0.00  0.00     0.038 C 
ATOM      4  C   LIG d   1      -7.564  94.194 119.837  0.00  0.00     0.028 C 
ATOM      5  C   LIG d   1      -7.197  93.627 118.469  0.00  0.00    -0.047 C 
ATOM      6  C   LIG d   1      -6.289  92.392 118.665  0.00  0.00     0.091 C 
ENDROOT
BRANCH   1   7
ATOM      7  O   LIG d   1      -4.464  91.525 120.052  0.00  0.00    -0.368 OA
BRANCH   7   8
ATOM      8  C   LIG d   1      -3.071  91.290 119.732  0.00  0.00     0.119 C 
BRANCH   8   9
ATOM      9  C   LIG d   1      -2.681  92.272 118.610  0.00  0.00     0.028 C 
ATOM     10  C   LIG d   1      -1.459  93.130 118.979  0.00  0.00     0.006 C 
ENDBRANCH   8   9
BRANCH   8  11
ATOM     11  C   LIG d   1      -2.863  89.894 119.139  0.00  0.00     0.028 C 
ATOM     12  C   LIG d   1      -2.725  89.911 117.609  0.00  0.00     0.006 C 
ENDBRANCH   8  11
ENDBRANCH   7   8
ENDBRANCH   1   7
BRANCH   6  13
ATOM     13  N   LIG d   1      -5.815  91.827 117.375  0.00  0.00    -0.311 N 
ATOM     14  C   LIG d   1      -6.438  90.839 116.735  0.00  0.00     0.210 C 
ATOM     15  C   LIG d   1      -5.771  90.392 115.430  0.00  0.00     0.109 C 
ATOM     16  O   LIG d   1      -7.497  90.312 117.107  0.00  0.00    -0.276 OA
ATOM     17  H   LIG d   1      -4.979  92.217 116.986  0.00  0.00     0.149 HD
ENDBRANCH   6  13
BRANCH   5  18
ATOM     18  N   LIG d   1      -8.455  93.315 117.764  0.00  0.00     0.381 N 
ATOM     19  H   LIG d   1      -9.169  93.957 118.045  0.00  0.00    -0.090 HD
ATOM     20  H   LIG d   1      -8.747  92.387 118.017  0.00  0.00    -0.090 HD
ATOM     21  H   LIG d   1      -8.316  93.371 116.779  0.00  0.00    -0.090 HD
ENDBRANCH   5  18
BRANCH   3  22
ATOM     22  C   LIG d   1      -6.520  95.443 121.594  0.00  0.00     0.382 C 
ATOM     23  O   LIG d   1      -5.663  96.359 121.579  0.00  0.00    -0.241 OA
ATOM     24  O   LIG d   1      -7.400  95.441 122.475  0.00  0.00    -0.241 OA
ENDBRANCH   3  22
TORSDOF 7
ENDMDL
MODEL 5
REMARK VINA RESULT:      -4.5      4.387      8.507
REMARK  7 active torsions:
REMARK  status: ('A' for Active; 'I' for Inactive)
REMARK    1  A    between atoms: C_2  and  C_3 
REMARK    2  A    between atoms: C_3  and  O_6 
REMARK    3  A    between atoms: C_3  and  C_4 
REMARK    4  A    between atoms: C_7  and  O_6 
REMARK    5  A    between atoms: C_9  and  C_10 
REMARK    6  A    between atoms: N_15  and  C_14 
REMARK    7  A    between atoms: N_20  and  C_19 
REMARK       I    between atoms: C_22  and  N_20 
ROOT
ATOM      1  C   LIG d   1       1.469  90.670 116.444  0.00  0.00     0.161 C 
ATOM      2  C   LIG d   1       2.778  90.245 116.165  0.00  0.00     0.016 C 
ATOM      3  C   LIG d   1       3.883  90.530 116.999  0.00  0.00     0.038 C 
ATOM      4  C   LIG d   1       3.728  91.135 118.255  0.00  0.00     0.028 C 
ATOM      5  C   LIG d   1       2.496  92.029 118.349  0.00  0.00    -0.047 C 
ATOM      6  C   LIG d   1       1.261  91.234 117.865  0.00  0.00     0.091 C 
ENDROOT
BRANCH   1   7
ATOM      7  O   LIG d   1       0.542  89.595 116.192  0.00  0.00    -0.368 OA
BRANCH   7   8
ATOM      8  C   LIG d   1       0.656  88.439 117.058  0.00  0.00     0.119 C 
BRANCH   8   9
ATOM      9  C   LIG d   1       0.849  87.203 116.158  0.00  0.00     0.028 C 
ATOM     10  C   LIG d   1       2.245  86.577 116.314  0.00  0.00     0.006 C 
ENDBRANCH   8   9
BRANCH   8  11
ATOM     11  C   LIG d   1      -0.647  88.185 117.822  0.00  0.00     0.028 C 
ATOM     12  C   LIG d   1      -1.855  88.898 117.194  0.00  0.00     0.006 C 
ENDBRANCH   8  11
ENDBRANCH   7   8
ENDBRANCH   1   7
BRANCH   6  13
ATOM     13  N   LIG d   1       0.027  92.062 117.845  0.00  0.00    -0.311 N 
ATOM     14  C   LIG d   1      -0.865  92.073 118.834  0.00  0.00     0.210 C 
ATOM     15  C   LIG d   1      -2.076  92.981 118.603  0.00  0.00     0.109 C 
ATOM     16  O   LIG d   1      -0.752  91.441 119.895  0.00  0.00    -0.276 OA
ATOM     17  H   LIG d   1      -0.128  92.629 117.035  0.00  0.00     0.149 HD
ENDBRANCH   6  13
BRANCH   5  18
ATOM     18  N   LIG d   1       2.380  92.483 119.747  0.00  0.00     0.381 N 
ATOM     19  H   LIG d   1       1.479  92.242 120.108  0.00  0.00    -0.090 HD
ATOM     20  H   LIG d   1       2.473  93.483 119.773  0.00  0.00    -0.090 HD
ATOM     21  H   LIG d   1       3.092  92.062 120.303  0.00  0.00    -0.090 HD
ENDBRANCH   5  18
BRANCH   3  22
ATOM     22  C   LIG d   1       5.167  90.245 116.560  0.00  0.00     0.382 C 
ATOM     23  O   LIG d   1       6.154  90.522 117.284  0.00  0.00    -0.241 OA
ATOM     24  O   LIG d   1       5.354  89.755 115.430  0.00  0.00    -0.241 OA
ENDBRANCH   3  22
TORSDOF 7
ENDMDL
MODEL 6
REMARK VINA RESULT:      -4.3      2.219      4.964
REMARK  7 active torsions:
REMARK  status: ('A' for Active; 'I' for Inactive)
REMARK    1  A    between atoms: C_2  and  C_3 
REMARK    2  A    between atoms: C_3  and  O_6 
REMARK    3  A    between atoms: C_3  and  C_4 
REMARK    4  A    between atoms: C_7  and  O_6 
REMARK    5  A    between atoms: C_9  and  C_10 
REMARK    6  A    between atoms: N_15  and  C_14 
REMARK    7  A    between atoms: N_20  and  C_19 
REMARK       I    between atoms: C_22  and  N_20 
ROOT
ATOM      1  C   LIG d   1      -3.786  91.565 118.507  0.00  0.00     0.161 C 
ATOM      2  C   LIG d   1      -2.992  91.761 119.650  0.00  0.00     0.016 C 
ATOM      3  C   LIG d   1      -3.452  92.418 120.814  0.00  0.00     0.038 C 
ATOM      4  C   LIG d   1      -4.795  92.792 120.972  0.00  0.00     0.028 C 
ATOM      5  C   LIG d   1      -5.506  93.068 119.652  0.00  0.00    -0.047 C 
ATOM      6  C   LIG d   1      -5.286  91.868 118.703  0.00  0.00     0.091 C 
ENDROOT
BRANCH   1   7
ATOM      7  O   LIG d   1      -3.606  90.224 118.011  0.00  0.00    -0.368 OA
BRANCH   7   8
ATOM      8  C   LIG d   1      -2.323  89.609 118.285  0.00  0.00     0.119 C 
BRANCH   8   9
ATOM      9  C   LIG d   1      -1.779  89.059 116.953  0.00  0.00     0.028 C 
ATOM     10  C   LIG d   1      -0.247  88.918 116.957  0.00  0.00     0.006 C 
ENDBRANCH   8   9
BRANCH   8  11
ATOM     11  C   LIG d   1      -2.473  88.388 119.197  0.00  0.00     0.028 C 
ATOM     12  C   LIG d   1      -1.604  88.477 120.462  0.00  0.00     0.006 C 
ENDBRANCH   8  11
ENDBRANCH   7   8
ENDBRANCH   1   7
BRANCH   6  13
ATOM     13  N   LIG d   1      -5.878  92.093 117.358  0.00  0.00    -0.311 N 
ATOM     14  C   LIG d   1      -6.833  91.322 116.840  0.00  0.00     0.210 C 
ATOM     15  C   LIG d   1      -7.288  91.717 115.431  0.00  0.00     0.109 C 
ATOM     16  O   LIG d   1      -7.368  90.369 117.425  0.00  0.00    -0.276 OA
ATOM     17  H   LIG d   1      -5.524  92.864 116.827  0.00  0.00     0.149 HD
ENDBRANCH   6  13
BRANCH   5  18
ATOM     18  N   LIG d   1      -6.929  93.313 119.954  0.00  0.00     0.381 N 
ATOM     19  H   LIG d   1      -7.409  93.592 119.122  0.00  0.00    -0.090 HD
ATOM     20  H   LIG d   1      -6.995  94.060 120.623  0.00  0.00    -0.090 HD
ATOM     21  H   LIG d   1      -7.345  92.488 120.326  0.00  0.00    -0.090 HD
ENDBRANCH   5  18
BRANCH   3  22
ATOM     22  C   LIG d   1      -2.555  92.741 121.820  0.00  0.00     0.382 C 
ATOM     23  O   LIG d   1      -1.444  92.162 121.880  0.00  0.00    -0.241 OA
ATOM     24  O   LIG d   1      -2.861  93.574 122.695  0.00  0.00    -0.241 OA
ENDBRANCH   3  22
TORSDOF 7
ENDMDL
MODEL 7
REMARK VINA RESULT:      -4.3      2.855      6.285
REMARK  7 active torsions:
REMARK  status: ('A' for Active; 'I' for Inactive)
REMARK    1  A    between atoms: C_2  and  C_3 
REMARK    2  A    between atoms: C_3  and  O_6 
REMARK    3  A    between atoms: C_3  and  C_4 
REMARK    4  A    between atoms: C_7  and  O_6 
REMARK    5  A    between atoms: C_9  and  C_10 
REMARK    6  A    between atoms: N_15  and  C_14 
REMARK    7  A    between atoms: N_20  and  C_19 
REMARK       I    between atoms: C_22  and  N_20 
ROOT
ATOM      1  C   LIG d   1      -0.972  90.934 117.680  0.00  0.00     0.161 C 
ATOM      2  C   LIG d   1       0.260  91.200 118.299  0.00  0.00     0.016 C 
ATOM      3  C   LIG d   1       0.470  92.285 119.181  0.00  0.00     0.038 C 
ATOM      4  C   LIG d   1      -0.586  93.095 119.625  0.00  0.00     0.028 C 
ATOM      5  C   LIG d   1      -1.745  93.174 118.637  0.00  0.00    -0.047 C 
ATOM      6  C   LIG d   1      -2.164  91.740 118.239  0.00  0.00     0.091 C 
ENDROOT
BRANCH   1   7
ATOM      7  O   LIG d   1      -1.253  89.522 117.737  0.00  0.00    -0.368 OA
BRANCH   7   8
ATOM      8  C   LIG d   1      -0.127  88.660 118.034  0.00  0.00     0.119 C 
BRANCH   8   9
ATOM      9  C   LIG d   1       0.282  87.963 116.722  0.00  0.00     0.028 C 
ATOM     10  C   LIG d   1       1.328  86.858 116.946  0.00  0.00     0.006 C 
ENDBRANCH   8   9
BRANCH   8  11
ATOM     11  C   LIG d   1      -0.527  87.529 118.986  0.00  0.00     0.028 C 
ATOM     12  C   LIG d   1      -1.906  87.751 119.629  0.00  0.00     0.006 C 
ENDBRANCH   8  11
ENDBRANCH   7   8
ENDBRANCH   1   7
BRANCH   6  13
ATOM     13  N   LIG d   1      -3.236  91.729 117.210  0.00  0.00    -0.311 N 
ATOM     14  C   LIG d   1      -4.405  91.111 117.376  0.00  0.00     0.210 C 
ATOM     15  C   LIG d   1      -5.361  91.205 116.184  0.00  0.00     0.109 C 
ATOM     16  O   LIG d   1      -4.752  90.521 118.410  0.00  0.00    -0.276 OA
ATOM     17  H   LIG d   1      -3.051  92.210 116.352  0.00  0.00     0.149 HD
ENDBRANCH   6  13
BRANCH   5  18
ATOM     18  N   LIG d   1      -2.831  93.935 119.284  0.00  0.00     0.381 N 
ATOM     19  H   LIG d   1      -2.462  94.771 119.691  0.00  0.00    -0.090 HD
ATOM     20  H   LIG d   1      -3.227  93.375 120.018  0.00  0.00    -0.090 HD
ATOM     21  H   LIG d   1      -3.532  94.163 118.615  0.00  0.00    -0.090 HD
ENDBRANCH   5  18
BRANCH   3  22
ATOM     22  C   LIG d   1       1.756  92.593 119.598  0.00  0.00     0.382 C 
ATOM     23  O   LIG d   1       1.932  93.363 120.573  0.00  0.00    -0.241 OA
ATOM     24  O   LIG d   1       2.743  92.147 118.983  0.00  0.00    -0.241 OA
ENDBRANCH   3  22
TORSDOF 7
ENDMDL
MODEL 8
REMARK VINA RESULT:      -4.3      3.190      5.740
REMARK  7 active torsions:
REMARK  status: ('A' for Active; 'I' for Inactive)
REMARK    1  A    between atoms: C_2  and  C_3 
REMARK    2  A    between atoms: C_3  and  O_6 
REMARK    3  A    between atoms: C_3  and  C_4 
REMARK    4  A    between atoms: C_7  and  O_6 
REMARK    5  A    between atoms: C_9  and  C_10 
REMARK    6  A    between atoms: N_15  and  C_14 
REMARK    7  A    between atoms: N_20  and  C_19 
REMARK       I    between atoms: C_22  and  N_20 
ROOT
ATOM      1  C   LIG d   1      -0.441  89.894 117.764  0.00  0.00     0.161 C 
ATOM      2  C   LIG d   1      -1.843  89.894 117.685  0.00  0.00     0.016 C 
ATOM      3  C   LIG d   1      -2.636  91.042 117.915  0.00  0.00     0.038 C 
ATOM      4  C   LIG d   1      -2.067  92.312 118.092  0.00  0.00     0.028 C 
ATOM      5  C   LIG d   1      -0.660  92.269 118.680  0.00  0.00    -0.047 C 
ATOM      6  C   LIG d   1       0.202  91.294 117.846  0.00  0.00     0.091 C 
ENDROOT
BRANCH   1   7
ATOM      7  O   LIG d   1       0.111  89.153 116.657  0.00  0.00    -0.368 OA
BRANCH   7   8
ATOM      8  C   LIG d   1       0.304  87.734 116.872  0.00  0.00     0.119 C 
BRANCH   8   9
ATOM      9  C   LIG d   1       0.917  87.558 118.275  0.00  0.00     0.028 C 
ATOM     10  C   LIG d   1       0.316  86.363 119.033  0.00  0.00     0.006 C 
ENDBRANCH   8   9
BRANCH   8  11
ATOM     11  C   LIG d   1       1.341  87.159 115.902  0.00  0.00     0.028 C 
ATOM     12  C   LIG d   1       2.725  87.810 116.054  0.00  0.00     0.006 C 
ENDBRANCH   8  11
ENDBRANCH   7   8
ENDBRANCH   1   7
BRANCH   6  13
ATOM     13  N   LIG d   1       1.570  91.129 118.403  0.00  0.00    -0.311 N 
ATOM     14  C   LIG d   1       2.674  91.162 117.659  0.00  0.00     0.210 C 
ATOM     15  C   LIG d   1       3.981  90.950 118.430  0.00  0.00     0.109 C 
ATOM     16  O   LIG d   1       2.697  91.378 116.438  0.00  0.00    -0.276 OA
ATOM     17  H   LIG d   1       1.645  90.980 119.391  0.00  0.00     0.149 HD
ENDBRANCH   6  13
BRANCH   5  18
ATOM     18  N   LIG d   1      -0.136  93.648 118.681  0.00  0.00     0.381 N 
ATOM     19  H   LIG d   1       0.689  93.696 119.245  0.00  0.00    -0.090 HD
ATOM     20  H   LIG d   1      -0.827  94.258 119.081  0.00  0.00    -0.090 HD
ATOM     21  H   LIG d   1       0.072  93.935 117.750  0.00  0.00    -0.090 HD
ENDBRANCH   5  18
BRANCH   3  22
ATOM     22  C   LIG d   1      -4.013  90.918 118.009  0.00  0.00     0.382 C 
ATOM     23  O   LIG d   1      -4.659  90.373 117.082  0.00  0.00    -0.241 OA
ATOM     24  O   LIG d   1      -4.624  91.385 118.990  0.00  0.00    -0.241 OA
ENDBRANCH   3  22
TORSDOF 7
ENDMDL
MODEL 9
REMARK VINA RESULT:      -4.1      2.504      5.201
REMARK  7 active torsions:
REMARK  status: ('A' for Active; 'I' for Inactive)
REMARK    1  A    between atoms: C_2  and  C_3 
REMARK    2  A    between atoms: C_3  and  O_6 
REMARK    3  A    between atoms: C_3  and  C_4 
REMARK    4  A    between atoms: C_7  and  O_6 
REMARK    5  A    between atoms: C_9  and  C_10 
REMARK    6  A    between atoms: N_15  and  C_14 
REMARK    7  A    between atoms: N_20  and  C_19 
REMARK       I    between atoms: C_22  and  N_20 
ROOT
ATOM      1  C   LIG d   1      -5.539  92.212 119.574  0.00  0.00     0.161 C 
ATOM      2  C   LIG d   1      -4.515  92.492 120.494  0.00  0.00     0.016 C 
ATOM      3  C   LIG d   1      -3.171  92.096 120.306  0.00  0.00     0.038 C 
ATOM      4  C   LIG d   1      -2.728  91.522 119.105  0.00  0.00     0.028 C 
ATOM      5  C   LIG d   1      -3.820  90.766 118.357  0.00  0.00    -0.047 C 
ATOM      6  C   LIG d   1      -5.054  91.685 118.208  0.00  0.00     0.091 C 
ENDROOT
BRANCH   1   7
ATOM      7  O   LIG d   1      -6.367  93.378 119.396  0.00  0.00    -0.368 OA
BRANCH   7   8
ATOM      8  C   LIG d   1      -6.232  94.416 120.398  0.00  0.00     0.119 C 
BRANCH   8   9
ATOM      9  C   LIG d   1      -7.580  94.526 121.136  0.00  0.00     0.028 C 
ATOM     10  C   LIG d   1      -7.814  95.928 121.725  0.00  0.00     0.006 C 
ENDBRANCH   8   9
BRANCH   8  11
ATOM     11  C   LIG d   1      -6.009  95.787 119.754  0.00  0.00     0.028 C 
ATOM     12  C   LIG d   1      -4.568  96.296 119.917  0.00  0.00     0.006 C 
ENDBRANCH   8  11
ENDBRANCH   7   8
ENDBRANCH   1   7
BRANCH   6  13
ATOM     13  N   LIG d   1      -6.200  90.994 117.560  0.00  0.00    -0.311 N 
ATOM     14  C   LIG d   1      -6.463  91.074 116.257  0.00  0.00     0.210 C 
ATOM     15  C   LIG d   1      -7.704  90.302 115.799  0.00  0.00     0.109 C 
ATOM     16  O   LIG d   1      -5.767  91.685 115.431  0.00  0.00    -0.276 OA
ATOM     17  H   LIG d   1      -6.798  90.451 118.151  0.00  0.00     0.149 HD
ENDBRANCH   6  13
BRANCH   5  18
ATOM     18  N   LIG d   1      -3.258  90.338 117.061  0.00  0.00     0.381 N 
ATOM     19  H   LIG d   1      -3.567  90.956 116.338  0.00  0.00    -0.090 HD
ATOM     20  H   LIG d   1      -3.593  89.414 116.851  0.00  0.00    -0.090 HD
ATOM     21  H   LIG d   1      -2.263  90.337 117.105  0.00  0.00    -0.090 HD
ENDBRANCH   5  18
BRANCH   3  22
ATOM     22  C   LIG d   1      -2.261  92.239 121.343  0.00  0.00     0.382 C 
ATOM     23  O   LIG d   1      -2.547  92.953 122.334  0.00  0.00    -0.241 OA
ATOM     24  O   LIG d   1      -1.141  91.697 121.280  0.00  0.00    -0.241 OA
ENDBRANCH   3  22
TORSDOF 7
ENDMDL
