MODEL 1
REMARK VINA RESULT:      -4.4      0.000      0.000
REMARK  7 active torsions:
REMARK  status: ('A' for Active; 'I' for Inactive)
REMARK    1  A    between atoms: C_2  and  C_3 
REMARK    2  A    between atoms: C_3  and  O_6 
REMARK    3  A    between atoms: C_3  and  C_4 
REMARK    4  A    between atoms: C_7  and  O_6 
REMARK    5  A    between atoms: C_9  and  C_10 
REMARK    6  A    between atoms: N_15  and  C_14 
REMARK    7  A    between atoms: N_20  and  C_19 
REMARK       I    between atoms: C_22  and  N_20 
ROOT
ATOM      1  C   LIG d   1       2.910  90.829 117.040  0.00  0.00     0.161 C 
ATOM      2  C   LIG d   1       4.177  90.410 116.601  0.00  0.00     0.016 C 
ATOM      3  C   LIG d   1       5.388  90.867 117.171  0.00  0.00     0.038 C 
ATOM      4  C   LIG d   1       5.410  91.663 118.325  0.00  0.00     0.028 C 
ATOM      5  C   LIG d   1       4.158  92.517 118.496  0.00  0.00    -0.047 C 
ATOM      6  C   LIG d   1       2.912  91.611 118.370  0.00  0.00     0.091 C 
ENDROOT
BRANCH   1   7
ATOM      7  O   LIG d   1       2.024  89.696 117.127  0.00  0.00    -0.368 OA
BRANCH   7   8
ATOM      8  C   LIG d   1       2.524  88.452 116.576  0.00  0.00     0.119 C 
BRANCH   8   9
ATOM      9  C   LIG d   1       1.579  88.040 115.431  0.00  0.00     0.028 C 
ATOM     10  C   LIG d   1       0.884  86.694 115.699  0.00  0.00     0.006 C 
ENDBRANCH   8   9
BRANCH   8  11
ATOM     11  C   LIG d   1       2.439  87.316 117.600  0.00  0.00     0.028 C 
ATOM     12  C   LIG d   1       3.043  87.695 118.962  0.00  0.00     0.006 C 
ENDBRANCH   8  11
ENDBRANCH   7   8
ENDBRANCH   1   7
BRANCH   6  13
ATOM     13  N   LIG d   1       1.643  92.381 118.441  0.00  0.00    -0.311 N 
ATOM     14  C   LIG d   1       0.979  92.597 119.576  0.00  0.00     0.210 C 
ATOM     15  C   LIG d   1      -0.318  93.397 119.424  0.00  0.00     0.109 C 
ATOM     16  O   LIG d   1       1.359  92.230 120.698  0.00  0.00    -0.276 OA
ATOM     17  H   LIG d   1       1.279  92.741 117.581  0.00  0.00     0.149 HD
ENDBRANCH   6  13
BRANCH   5  18
ATOM     18  N   LIG d   1       4.253  93.190 119.806  0.00  0.00     0.381 N 
ATOM     19  H   LIG d   1       4.491  92.523 120.513  0.00  0.00    -0.090 HD
ATOM     20  H   LIG d   1       3.358  93.586 120.033  0.00  0.00    -0.090 HD
ATOM     21  H   LIG d   1       4.943  93.908 119.771  0.00  0.00    -0.090 HD
ENDBRANCH   5  18
BRANCH   3  22
ATOM     22  C   LIG d   1       6.594  90.559 116.560  0.00  0.00     0.382 C 
ATOM     23  O   LIG d   1       7.675  90.882 117.108  0.00  0.00    -0.241 OA
ATOM     24  O   LIG d   1       6.614  90.001 115.446  0.00  0.00    -0.241 OA
ENDBRANCH   3  22
TORSDOF 7
ENDMDL
MODEL 2
REMARK VINA RESULT:      -3.9      2.203      4.302
REMARK  7 active torsions:
REMARK  status: ('A' for Active; 'I' for Inactive)
REMARK    1  A    between atoms: C_2  and  C_3 
REMARK    2  A    between atoms: C_3  and  O_6 
REMARK    3  A    between atoms: C_3  and  C_4 
REMARK    4  A    between atoms: C_7  and  O_6 
REMARK    5  A    between atoms: C_9  and  C_10 
REMARK    6  A    between atoms: N_15  and  C_14 
REMARK    7  A    between atoms: N_20  and  C_19 
REMARK       I    between atoms: C_22  and  N_20 
ROOT
ATOM      1  C   LIG d   1       4.919  91.455 117.539  0.00  0.00     0.161 C 
ATOM      2  C   LIG d   1       5.588  92.427 118.301  0.00  0.00     0.016 C 
ATOM      3  C   LIG d   1       4.925  93.335 119.158  0.00  0.00     0.038 C 
ATOM      4  C   LIG d   1       3.552  93.233 119.427  0.00  0.00     0.028 C 
ATOM      5  C   LIG d   1       2.759  92.589 118.295  0.00  0.00    -0.047 C 
ATOM      6  C   LIG d   1       3.434  91.255 117.905  0.00  0.00     0.091 C 
ENDROOT
BRANCH   1   7
ATOM      7  O   LIG d   1       5.627  90.201 117.616  0.00  0.00    -0.368 OA
BRANCH   7   8
ATOM      8  C   LIG d   1       6.597  89.951 116.569  0.00  0.00     0.119 C 
BRANCH   8   9
ATOM      9  C   LIG d   1       5.871  89.199 115.436  0.00  0.00     0.028 C 
ATOM     10  C   LIG d   1       5.509  87.756 115.828  0.00  0.00     0.006 C 
ENDBRANCH   8   9
BRANCH   8  11
ATOM     11  C   LIG d   1       7.699  89.001 117.045  0.00  0.00     0.028 C 
ATOM     12  C   LIG d   1       8.081  89.222 118.517  0.00  0.00     0.006 C 
ENDBRANCH   8  11
ENDBRANCH   7   8
ENDBRANCH   1   7
BRANCH   6  13
ATOM     13  N   LIG d   1       2.769  90.601 116.747  0.00  0.00    -0.311 N 
ATOM     14  C   LIG d   1       2.417  89.317 116.733  0.00  0.00     0.210 C 
ATOM     15  C   LIG d   1       1.763  88.839 115.433  0.00  0.00     0.109 C 
ATOM     16  O   LIG d   1       2.555  88.535 117.687  0.00  0.00    -0.276 OA
ATOM     17  H   LIG d   1       2.591  91.170 115.942  0.00  0.00     0.149 HD
ENDBRANCH   6  13
BRANCH   5  18
ATOM     18  N   LIG d   1       1.370  92.420 118.764  0.00  0.00     0.381 N 
ATOM     19  H   LIG d   1       0.741  92.484 117.989  0.00  0.00    -0.090 HD
ATOM     20  H   LIG d   1       1.153  93.158 119.410  0.00  0.00    -0.090 HD
ATOM     21  H   LIG d   1       1.267  91.536 119.212  0.00  0.00    -0.090 HD
ENDBRANCH   5  18
BRANCH   3  22
ATOM     22  C   LIG d   1       5.631  94.386 119.724  0.00  0.00     0.382 C 
ATOM     23  O   LIG d   1       5.017  95.309 120.312  0.00  0.00    -0.241 OA
ATOM     24  O   LIG d   1       6.870  94.445 119.616  0.00  0.00    -0.241 OA
ENDBRANCH   3  22
TORSDOF 7
ENDMDL
MODEL 3
REMARK VINA RESULT:      -3.9      6.772     10.224
REMARK  7 active torsions:
REMARK  status: ('A' for Active; 'I' for Inactive)
REMARK    1  A    between atoms: C_2  and  C_3 
REMARK    2  A    between atoms: C_3  and  O_6 
REMARK    3  A    between atoms: C_3  and  C_4 
REMARK    4  A    between atoms: C_7  and  O_6 
REMARK    5  A    between atoms: C_9  and  C_10 
REMARK    6  A    between atoms: N_15  and  C_14 
REMARK    7  A    between atoms: N_20  and  C_19 
REMARK       I    between atoms: C_22  and  N_20 
ROOT
ATOM      1  C   LIG d   1      -4.009  94.468 121.952  0.00  0.00     0.161 C 
ATOM      2  C   LIG d   1      -2.694  94.436 121.457  0.00  0.00     0.016 C 
ATOM      3  C   LIG d   1      -2.286  93.607 120.387  0.00  0.00     0.038 C 
ATOM      4  C   LIG d   1      -3.205  92.859 119.637  0.00  0.00     0.028 C 
ATOM      5  C   LIG d   1      -4.456  92.473 120.419  0.00  0.00    -0.047 C 
ATOM      6  C   LIG d   1      -5.049  93.742 121.074  0.00  0.00     0.091 C 
ENDROOT
BRANCH   1   7
ATOM      7  O   LIG d   1      -4.412  95.833 122.181  0.00  0.00    -0.368 OA
BRANCH   7   8
ATOM      8  C   LIG d   1      -5.259  96.426 121.166  0.00  0.00     0.119 C 
BRANCH   8   9
ATOM      9  C   LIG d   1      -4.399  97.430 120.374  0.00  0.00     0.028 C 
ATOM     10  C   LIG d   1      -4.715  97.413 118.869  0.00  0.00     0.006 C 
ENDBRANCH   8   9
BRANCH   8  11
ATOM     11  C   LIG d   1      -6.380  97.259 121.794  0.00  0.00     0.028 C 
ATOM     12  C   LIG d   1      -7.710  97.137 121.033  0.00  0.00     0.006 C 
ENDBRANCH   8  11
ENDBRANCH   7   8
ENDBRANCH   1   7
BRANCH   6  13
ATOM     13  N   LIG d   1      -6.227  93.441 121.928  0.00  0.00    -0.311 N 
ATOM     14  C   LIG d   1      -7.482  93.476 121.484  0.00  0.00     0.210 C 
ATOM     15  C   LIG d   1      -8.549  93.152 122.534  0.00  0.00     0.109 C 
ATOM     16  O   LIG d   1      -7.812  93.714 120.312  0.00  0.00    -0.276 OA
ATOM     17  H   LIG d   1      -6.049  93.208 122.885  0.00  0.00     0.149 HD
ENDBRANCH   6  13
BRANCH   5  18
ATOM     18  N   LIG d   1      -5.385  91.819 119.480  0.00  0.00     0.381 N 
ATOM     19  H   LIG d   1      -5.471  90.849 119.709  0.00  0.00    -0.090 HD
ATOM     20  H   LIG d   1      -5.012  91.891 118.550  0.00  0.00    -0.090 HD
ATOM     21  H   LIG d   1      -6.279  92.258 119.523  0.00  0.00    -0.090 HD
ENDBRANCH   5  18
BRANCH   3  22
ATOM     22  C   LIG d   1      -0.938  93.489 120.085  0.00  0.00     0.382 C 
ATOM     23  O   LIG d   1      -0.562  92.684 119.199  0.00  0.00    -0.241 OA
ATOM     24  O   LIG d   1      -0.089  94.146 120.718  0.00  0.00    -0.241 OA
ENDBRANCH   3  22
TORSDOF 7
ENDMDL
MODEL 4
REMARK VINA RESULT:      -3.9      1.891      4.784
REMARK  7 active torsions:
REMARK  status: ('A' for Active; 'I' for Inactive)
REMARK    1  A    between atoms: C_2  and  C_3 
REMARK    2  A    between atoms: C_3  and  O_6 
REMARK    3  A    between atoms: C_3  and  C_4 
REMARK    4  A    between atoms: C_7  and  O_6 
REMARK    5  A    between atoms: C_9  and  C_10 
REMARK    6  A    between atoms: N_15  and  C_14 
REMARK    7  A    between atoms: N_20  and  C_19 
REMARK       I    between atoms: C_22  and  N_20 
ROOT
ATOM      1  C   LIG d   1       3.817  90.846 117.444  0.00  0.00     0.161 C 
ATOM      2  C   LIG d   1       2.661  91.508 117.890  0.00  0.00     0.016 C 
ATOM      3  C   LIG d   1       2.672  92.499 118.899  0.00  0.00     0.038 C 
ATOM      4  C   LIG d   1       3.869  93.005 119.427  0.00  0.00     0.028 C 
ATOM      5  C   LIG d   1       5.025  92.012 119.370  0.00  0.00    -0.047 C 
ATOM      6  C   LIG d   1       5.144  91.464 117.929  0.00  0.00     0.091 C 
ENDROOT
BRANCH   1   7
ATOM      7  O   LIG d   1       3.803  90.755 116.005  0.00  0.00    -0.368 OA
BRANCH   7   8
ATOM      8  C   LIG d   1       3.549  89.440 115.452  0.00  0.00     0.119 C 
BRANCH   8   9
ATOM      9  C   LIG d   1       2.022  89.234 115.430  0.00  0.00     0.028 C 
ATOM     10  C   LIG d   1       1.619  87.795 115.794  0.00  0.00     0.006 C 
ENDBRANCH   8   9
BRANCH   8  11
ATOM     11  C   LIG d   1       4.095  88.337 116.364  0.00  0.00     0.028 C 
ATOM     12  C   LIG d   1       5.358  87.668 115.800  0.00  0.00     0.006 C 
ENDBRANCH   8  11
ENDBRANCH   7   8
ENDBRANCH   1   7
BRANCH   6  13
ATOM     13  N   LIG d   1       6.197  90.422 117.805  0.00  0.00    -0.311 N 
ATOM     14  C   LIG d   1       7.467  90.695 117.511  0.00  0.00     0.210 C 
ATOM     15  C   LIG d   1       8.385  89.473 117.411  0.00  0.00     0.109 C 
ATOM     16  O   LIG d   1       7.928  91.836 117.356  0.00  0.00    -0.276 OA
ATOM     17  H   LIG d   1       5.917  89.471 117.946  0.00  0.00     0.149 HD
ENDBRANCH   6  13
BRANCH   5  18
ATOM     18  N   LIG d   1       6.239  92.715 119.824  0.00  0.00     0.381 N 
ATOM     19  H   LIG d   1       7.037  92.368 119.329  0.00  0.00    -0.090 HD
ATOM     20  H   LIG d   1       6.373  92.533 120.803  0.00  0.00    -0.090 HD
ATOM     21  H   LIG d   1       6.144  93.694 119.670  0.00  0.00    -0.090 HD
ENDBRANCH   5  18
BRANCH   3  22
ATOM     22  C   LIG d   1       1.474  92.965 119.418  0.00  0.00     0.382 C 
ATOM     23  O   LIG d   1       0.390  92.657 118.866  0.00  0.00    -0.241 OA
ATOM     24  O   LIG d   1       1.466  93.725 120.405  0.00  0.00    -0.241 OA
ENDBRANCH   3  22
TORSDOF 7
ENDMDL
MODEL 5
REMARK VINA RESULT:      -3.7      2.401      4.846
REMARK  7 active torsions:
REMARK  status: ('A' for Active; 'I' for Inactive)
REMARK    1  A    between atoms: C_2  and  C_3 
REMARK    2  A    between atoms: C_3  and  O_6 
REMARK    3  A    between atoms: C_3  and  C_4 
REMARK    4  A    between atoms: C_7  and  O_6 
REMARK    5  A    between atoms: C_9  and  C_10 
REMARK    6  A    between atoms: N_15  and  C_14 
REMARK    7  A    between atoms: N_20  and  C_19 
REMARK       I    between atoms: C_22  and  N_20 
ROOT
ATOM      1  C   LIG d   1       5.181  91.304 119.386  0.00  0.00     0.161 C 
ATOM      2  C   LIG d   1       6.052  90.744 118.437  0.00  0.00     0.016 C 
ATOM      3  C   LIG d   1       5.631  90.290 117.166  0.00  0.00     0.038 C 
ATOM      4  C   LIG d   1       4.326  90.504 116.697  0.00  0.00     0.028 C 
ATOM      5  C   LIG d   1       3.291  90.609 117.812  0.00  0.00    -0.047 C 
ATOM      6  C   LIG d   1       3.775  91.648 118.850  0.00  0.00     0.091 C 
ENDROOT
BRANCH   1   7
ATOM      7  O   LIG d   1       5.789  92.468 119.981  0.00  0.00    -0.368 OA
BRANCH   7   8
ATOM      8  C   LIG d   1       5.609  93.716 119.268  0.00  0.00     0.119 C 
BRANCH   8   9
ATOM      9  C   LIG d   1       7.003  94.202 118.825  0.00  0.00     0.028 C 
ATOM     10  C   LIG d   1       7.010  95.690 118.437  0.00  0.00     0.006 C 
ENDBRANCH   8   9
BRANCH   8  11
ATOM     11  C   LIG d   1       5.071  94.813 120.191  0.00  0.00     0.028 C 
ATOM     12  C   LIG d   1       4.843  94.322 121.630  0.00  0.00     0.006 C 
ENDBRANCH   8  11
ENDBRANCH   7   8
ENDBRANCH   1   7
BRANCH   6  13
ATOM     13  N   LIG d   1       2.862  91.751 120.017  0.00  0.00    -0.311 N 
ATOM     14  C   LIG d   1       1.887  92.654 120.108  0.00  0.00     0.210 C 
ATOM     15  C   LIG d   1       1.074  92.600 121.405  0.00  0.00     0.109 C 
ATOM     16  O   LIG d   1       1.598  93.473 119.223  0.00  0.00    -0.276 OA
ATOM     17  H   LIG d   1       3.006  91.104 120.768  0.00  0.00     0.149 HD
ENDBRANCH   6  13
BRANCH   5  18
ATOM     18  N   LIG d   1       2.003  90.969 117.192  0.00  0.00     0.381 N 
ATOM     19  H   LIG d   1       2.154  91.626 116.453  0.00  0.00    -0.090 HD
ATOM     20  H   LIG d   1       1.418  91.403 117.884  0.00  0.00    -0.090 HD
ATOM     21  H   LIG d   1       1.557  90.153 116.834  0.00  0.00    -0.090 HD
ENDBRANCH   5  18
BRANCH   3  22
ATOM     22  C   LIG d   1       6.510  89.576 116.365  0.00  0.00     0.382 C 
ATOM     23  O   LIG d   1       7.747  89.672 116.552  0.00  0.00    -0.241 OA
ATOM     24  O   LIG d   1       6.083  88.873 115.430  0.00  0.00    -0.241 OA
ENDBRANCH   3  22
TORSDOF 7
ENDMDL
MODEL 6
REMARK VINA RESULT:      -3.7      5.198      9.649
REMARK  7 active torsions:
REMARK  status: ('A' for Active; 'I' for Inactive)
REMARK    1  A    between atoms: C_2  and  C_3 
REMARK    2  A    between atoms: C_3  and  O_6 
REMARK    3  A    between atoms: C_3  and  C_4 
REMARK    4  A    between atoms: C_7  and  O_6 
REMARK    5  A    between atoms: C_9  and  C_10 
REMARK    6  A    between atoms: N_15  and  C_14 
REMARK    7  A    between atoms: N_20  and  C_19 
REMARK       I    between atoms: C_22  and  N_20 
ROOT
ATOM      1  C   LIG d   1      -3.113  93.447 120.259  0.00  0.00     0.161 C 
ATOM      2  C   LIG d   1      -4.392  93.275 120.813  0.00  0.00     0.016 C 
ATOM      3  C   LIG d   1      -4.705  92.262 121.748  0.00  0.00     0.038 C 
ATOM      4  C   LIG d   1      -3.716  91.442 122.311  0.00  0.00     0.028 C 
ATOM      5  C   LIG d   1      -2.503  91.248 121.408  0.00  0.00    -0.047 C 
ATOM      6  C   LIG d   1      -1.996  92.633 120.944  0.00  0.00     0.091 C 
ENDROOT
BRANCH   1   7
ATOM      7  O   LIG d   1      -2.773  94.848 120.242  0.00  0.00    -0.368 OA
BRANCH   7   8
ATOM      8  C   LIG d   1      -3.615  95.718 121.037  0.00  0.00     0.119 C 
BRANCH   8   9
ATOM      9  C   LIG d   1      -4.019  96.911 120.149  0.00  0.00     0.028 C 
ATOM     10  C   LIG d   1      -4.995  96.507 119.031  0.00  0.00     0.006 C 
ENDBRANCH   8   9
BRANCH   8  11
ATOM     11  C   LIG d   1      -2.838  96.328 122.207  0.00  0.00     0.028 C 
ATOM     12  C   LIG d   1      -1.393  96.698 121.835  0.00  0.00     0.006 C 
ENDBRANCH   8  11
ENDBRANCH   7   8
ENDBRANCH   1   7
BRANCH   6  13
ATOM     13  N   LIG d   1      -0.862  92.531 119.989  0.00  0.00    -0.311 N 
ATOM     14  C   LIG d   1       0.309  93.138 120.173  0.00  0.00     0.210 C 
ATOM     15  C   LIG d   1       1.334  92.918 119.057  0.00  0.00     0.109 C 
ATOM     16  O   LIG d   1       0.607  93.811 121.172  0.00  0.00    -0.276 OA
ATOM     17  H   LIG d   1      -1.007  91.979 119.166  0.00  0.00     0.149 HD
ENDBRANCH   6  13
BRANCH   5  18
ATOM     18  N   LIG d   1      -1.495  90.489 122.171  0.00  0.00     0.381 N 
ATOM     19  H   LIG d   1      -1.154  89.727 121.619  0.00  0.00    -0.090 HD
ATOM     20  H   LIG d   1      -1.928  90.112 122.996  0.00  0.00    -0.090 HD
ATOM     21  H   LIG d   1      -0.740  91.087 122.427  0.00  0.00    -0.090 HD
ENDBRANCH   5  18
BRANCH   3  22
ATOM     22  C   LIG d   1      -6.027  92.035 122.100  0.00  0.00     0.382 C 
ATOM     23  O   LIG d   1      -6.926  92.809 121.691  0.00  0.00    -0.241 OA
ATOM     24  O   LIG d   1      -6.327  91.093 122.858  0.00  0.00    -0.241 OA
ENDBRANCH   3  22
TORSDOF 7
ENDMDL
MODEL 7
REMARK VINA RESULT:      -3.5      8.452     12.243
REMARK  7 active torsions:
REMARK  status: ('A' for Active; 'I' for Inactive)
REMARK    1  A    between atoms: C_2  and  C_3 
REMARK    2  A    between atoms: C_3  and  O_6 
REMARK    3  A    between atoms: C_3  and  C_4 
REMARK    4  A    between atoms: C_7  and  O_6 
REMARK    5  A    between atoms: C_9  and  C_10 
REMARK    6  A    between atoms: N_15  and  C_14 
REMARK    7  A    between atoms: N_20  and  C_19 
REMARK       I    between atoms: C_22  and  N_20 
ROOT
ATOM      1  C   LIG d   1      -6.166  95.177 121.436  0.00  0.00     0.161 C 
ATOM      2  C   LIG d   1      -7.464  95.287 120.911  0.00  0.00     0.016 C 
ATOM      3  C   LIG d   1      -8.440  94.271 121.028  0.00  0.00     0.038 C 
ATOM      4  C   LIG d   1      -8.230  93.128 121.815  0.00  0.00     0.028 C 
ATOM      5  C   LIG d   1      -6.759  92.744 121.944  0.00  0.00    -0.047 C 
ATOM      6  C   LIG d   1      -5.954  93.985 122.393  0.00  0.00     0.091 C 
ENDROOT
BRANCH   1   7
ATOM      7  O   LIG d   1      -5.793  96.410 122.081  0.00  0.00    -0.368 OA
BRANCH   7   8
ATOM      8  C   LIG d   1      -4.809  97.219 121.391  0.00  0.00     0.119 C 
BRANCH   8   9
ATOM      9  C   LIG d   1      -4.487  96.519 120.057  0.00  0.00     0.028 C 
ATOM     10  C   LIG d   1      -4.846  97.385 118.838  0.00  0.00     0.006 C 
ENDBRANCH   8   9
BRANCH   8  11
ATOM     11  C   LIG d   1      -3.484  97.259 122.158  0.00  0.00     0.028 C 
ATOM     12  C   LIG d   1      -2.311  96.678 121.352  0.00  0.00     0.006 C 
ENDBRANCH   8  11
ENDBRANCH   7   8
ENDBRANCH   1   7
BRANCH   6  13
ATOM     13  N   LIG d   1      -4.494  93.718 122.462  0.00  0.00    -0.311 N 
ATOM     14  C   LIG d   1      -3.792  93.212 121.449  0.00  0.00     0.210 C 
ATOM     15  C   LIG d   1      -2.303  92.996 121.738  0.00  0.00     0.109 C 
ATOM     16  O   LIG d   1      -4.255  92.951 120.329  0.00  0.00    -0.276 OA
ATOM     17  H   LIG d   1      -4.032  93.930 123.325  0.00  0.00     0.149 HD
ENDBRANCH   6  13
BRANCH   5  18
ATOM     18  N   LIG d   1      -6.674  91.623 122.900  0.00  0.00     0.381 N 
ATOM     19  H   LIG d   1      -6.246  90.834 122.458  0.00  0.00    -0.090 HD
ATOM     20  H   LIG d   1      -7.603  91.363 123.179  0.00  0.00    -0.090 HD
ATOM     21  H   LIG d   1      -6.143  91.895 123.698  0.00  0.00    -0.090 HD
ENDBRANCH   5  18
BRANCH   3  22
ATOM     22  C   LIG d   1      -9.628  94.373 120.321  0.00  0.00     0.382 C 
ATOM     23  O   LIG d   1     -10.632  94.903 120.855  0.00  0.00    -0.241 OA
ATOM     24  O   LIG d   1      -9.721  93.903 119.171  0.00  0.00    -0.241 OA
ENDBRANCH   3  22
TORSDOF 7
ENDMDL
MODEL 8
REMARK VINA RESULT:      -3.4      2.990      4.813
REMARK  7 active torsions:
REMARK  status: ('A' for Active; 'I' for Inactive)
REMARK    1  A    between atoms: C_2  and  C_3 
REMARK    2  A    between atoms: C_3  and  O_6 
REMARK    3  A    between atoms: C_3  and  C_4 
REMARK    4  A    between atoms: C_7  and  O_6 
REMARK    5  A    between atoms: C_9  and  C_10 
REMARK    6  A    between atoms: N_15  and  C_14 
REMARK    7  A    between atoms: N_20  and  C_19 
REMARK       I    between atoms: C_22  and  N_20 
ROOT
ATOM      1  C   LIG d   1       6.470  89.805 116.887  0.00  0.00     0.161 C 
ATOM      2  C   LIG d   1       6.867  88.519 116.485  0.00  0.00     0.016 C 
ATOM      3  C   LIG d   1       8.072  87.910 116.906  0.00  0.00     0.038 C 
ATOM      4  C   LIG d   1       8.894  88.491 117.883  0.00  0.00     0.028 C 
ATOM      5  C   LIG d   1       8.790  90.011 117.937  0.00  0.00    -0.047 C 
ATOM      6  C   LIG d   1       7.300  90.408 118.039  0.00  0.00     0.091 C 
ENDROOT
BRANCH   1   7
ATOM      7  O   LIG d   1       5.069  89.800 117.227  0.00  0.00    -0.368 OA
BRANCH   7   8
ATOM      8  C   LIG d   1       4.188  90.493 116.310  0.00  0.00     0.119 C 
BRANCH   8   9
ATOM      9  C   LIG d   1       3.119  91.217 117.152  0.00  0.00     0.028 C 
ATOM     10  C   LIG d   1       3.583  92.606 117.620  0.00  0.00     0.006 C 
ENDBRANCH   8   9
BRANCH   8  11
ATOM     11  C   LIG d   1       3.412  89.507 115.431  0.00  0.00     0.028 C 
ATOM     12  C   LIG d   1       2.024  89.169 115.996  0.00  0.00     0.006 C 
ENDBRANCH   8  11
ENDBRANCH   7   8
ENDBRANCH   1   7
BRANCH   6  13
ATOM     13  N   LIG d   1       7.103  91.881 118.013  0.00  0.00    -0.311 N 
ATOM     14  C   LIG d   1       7.033  92.632 119.111  0.00  0.00     0.210 C 
ATOM     15  C   LIG d   1       6.807  94.126 118.860  0.00  0.00     0.109 C 
ATOM     16  O   LIG d   1       7.170  92.206 120.268  0.00  0.00    -0.276 OA
ATOM     17  H   LIG d   1       7.013  92.313 117.114  0.00  0.00     0.149 HD
ENDBRANCH   6  13
BRANCH   5  18
ATOM     18  N   LIG d   1       9.592  90.472 119.086  0.00  0.00     0.381 N 
ATOM     19  H   LIG d   1      10.089  91.305 118.840  0.00  0.00    -0.090 HD
ATOM     20  H   LIG d   1      10.263  89.762 119.321  0.00  0.00    -0.090 HD
ATOM     21  H   LIG d   1       8.998  90.649 119.867  0.00  0.00    -0.090 HD
ENDBRANCH   5  18
BRANCH   3  22
ATOM     22  C   LIG d   1       8.485  86.725 116.317  0.00  0.00     0.382 C 
ATOM     23  O   LIG d   1       9.553  86.690 115.660  0.00  0.00    -0.241 OA
ATOM     24  O   LIG d   1       7.780  85.701 116.396  0.00  0.00    -0.241 OA
ENDBRANCH   3  22
TORSDOF 7
ENDMDL
MODEL 9
REMARK VINA RESULT:      -3.3      2.438      5.230
REMARK  7 active torsions:
REMARK  status: ('A' for Active; 'I' for Inactive)
REMARK    1  A    between atoms: C_2  and  C_3 
REMARK    2  A    between atoms: C_3  and  O_6 
REMARK    3  A    between atoms: C_3  and  C_4 
REMARK    4  A    between atoms: C_7  and  O_6 
REMARK    5  A    between atoms: C_9  and  C_10 
REMARK    6  A    between atoms: N_15  and  C_14 
REMARK    7  A    between atoms: N_20  and  C_19 
REMARK       I    between atoms: C_22  and  N_20 
ROOT
ATOM      1  C   LIG d   1       4.743  92.682 118.832  0.00  0.00     0.161 C 
ATOM      2  C   LIG d   1       5.617  91.846 118.116  0.00  0.00     0.016 C 
ATOM      3  C   LIG d   1       5.183  90.922 117.139  0.00  0.00     0.038 C 
ATOM      4  C   LIG d   1       3.852  90.877 116.700  0.00  0.00     0.028 C 
ATOM      5  C   LIG d   1       2.851  91.348 117.750  0.00  0.00    -0.047 C 
ATOM      6  C   LIG d   1       3.300  92.726 118.288  0.00  0.00     0.091 C 
ENDROOT
BRANCH   1   7
ATOM      7  O   LIG d   1       5.292  94.013 118.906  0.00  0.00    -0.368 OA
BRANCH   7   8
ATOM      8  C   LIG d   1       6.024  94.333 120.115  0.00  0.00     0.119 C 
BRANCH   8   9
ATOM      9  C   LIG d   1       5.107  95.204 120.995  0.00  0.00     0.028 C 
ATOM     10  C   LIG d   1       4.628  94.464 122.255  0.00  0.00     0.006 C 
ENDBRANCH   8   9
BRANCH   8  11
ATOM     11  C   LIG d   1       7.244  95.208 119.811  0.00  0.00     0.028 C 
ATOM     12  C   LIG d   1       7.191  95.839 118.410  0.00  0.00     0.006 C 
ENDBRANCH   8  11
ENDBRANCH   7   8
ENDBRANCH   1   7
BRANCH   6  13
ATOM     13  N   LIG d   1       2.422  93.221 119.380  0.00  0.00    -0.311 N 
ATOM     14  C   LIG d   1       2.122  92.504 120.461  0.00  0.00     0.210 C 
ATOM     15  C   LIG d   1       1.184  93.196 121.456  0.00  0.00     0.109 C 
ATOM     16  O   LIG d   1       2.569  91.374 120.707  0.00  0.00    -0.276 OA
ATOM     17  H   LIG d   1       2.041  94.142 119.277  0.00  0.00     0.149 HD
ENDBRANCH   6  13
BRANCH   5  18
ATOM     18  N   LIG d   1       1.520  91.381 117.115  0.00  0.00     0.381 N 
ATOM     19  H   LIG d   1       0.816  91.519 117.811  0.00  0.00    -0.090 HD
ATOM     20  H   LIG d   1       1.352  90.498 116.666  0.00  0.00    -0.090 HD
ATOM     21  H   LIG d   1       1.481  92.115 116.443  0.00  0.00    -0.090 HD
ENDBRANCH   5  18
BRANCH   3  22
ATOM     22  C   LIG d   1       6.080  90.001 116.618  0.00  0.00     0.382 C 
ATOM     23  O   LIG d   1       5.692  88.843 116.328  0.00  0.00    -0.241 OA
ATOM     24  O   LIG d   1       7.280  90.299 116.476  0.00  0.00    -0.241 OA
ENDBRANCH   3  22
TORSDOF 7
ENDMDL
