MODEL 1
REMARK VINA RESULT:      -5.1      0.000      0.000
REMARK  7 active torsions:
REMARK  status: ('A' for Active; 'I' for Inactive)
REMARK    1  A    between atoms: C_2  and  C_3 
REMARK    2  A    between atoms: C_3  and  O_6 
REMARK    3  A    between atoms: C_3  and  C_4 
REMARK    4  A    between atoms: C_7  and  O_6 
REMARK    5  A    between atoms: C_9  and  C_10 
REMARK    6  A    between atoms: N_15  and  C_14 
REMARK    7  A    between atoms: N_20  and  C_19 
REMARK       I    between atoms: C_22  and  N_20 
ROOT
ATOM      1  C   LIG d   1      -6.786  93.918 117.842  0.00  0.00     0.161 C 
ATOM      2  C   LIG d   1      -7.355  92.730 117.354  0.00  0.00     0.016 C 
ATOM      3  C   LIG d   1      -6.596  91.588 117.008  0.00  0.00     0.038 C 
ATOM      4  C   LIG d   1      -5.221  91.504 117.273  0.00  0.00     0.028 C 
ATOM      5  C   LIG d   1      -4.524  92.861 117.296  0.00  0.00    -0.047 C 
ATOM      6  C   LIG d   1      -5.299  93.806 118.242  0.00  0.00     0.091 C 
ENDROOT
BRANCH   1   7
ATOM      7  O   LIG d   1      -7.566  94.415 118.948  0.00  0.00    -0.368 OA
BRANCH   7   8
ATOM      8  C   LIG d   1      -8.847  95.002 118.611  0.00  0.00     0.119 C 
BRANCH   8   9
ATOM      9  C   LIG d   1      -8.596  96.476 118.237  0.00  0.00     0.028 C 
ATOM     10  C   LIG d   1      -7.796  97.227 119.314  0.00  0.00     0.006 C 
ENDBRANCH   8   9
BRANCH   8  11
ATOM     11  C   LIG d   1      -9.777  95.045 119.827  0.00  0.00     0.028 C 
ATOM     12  C   LIG d   1      -9.258  94.205 121.004  0.00  0.00     0.006 C 
ENDBRANCH   8  11
ENDBRANCH   7   8
ENDBRANCH   1   7
BRANCH   6  13
ATOM     13  N   LIG d   1      -4.734  95.181 118.258  0.00  0.00    -0.311 N 
ATOM     14  C   LIG d   1      -4.322  95.791 119.368  0.00  0.00     0.210 C 
ATOM     15  C   LIG d   1      -3.790  97.213 119.165  0.00  0.00     0.109 C 
ATOM     16  O   LIG d   1      -4.316  95.277 120.497  0.00  0.00    -0.276 OA
ATOM     17  H   LIG d   1      -4.673  95.659 117.381  0.00  0.00     0.149 HD
ENDBRANCH   6  13
BRANCH   5  18
ATOM     18  N   LIG d   1      -3.129  92.638 117.718  0.00  0.00     0.381 N 
ATOM     19  H   LIG d   1      -3.048  91.746 118.163  0.00  0.00    -0.090 HD
ATOM     20  H   LIG d   1      -2.873  93.347 118.382  0.00  0.00    -0.090 HD
ATOM     21  H   LIG d   1      -2.523  92.679 116.928  0.00  0.00    -0.090 HD
ENDBRANCH   5  18
BRANCH   3  22
ATOM     22  C   LIG d   1      -7.207  90.529 116.354  0.00  0.00     0.382 C 
ATOM     23  O   LIG d   1      -6.604  89.931 115.431  0.00  0.00    -0.241 OA
ATOM     24  O   LIG d   1      -8.370  90.193 116.646  0.00  0.00    -0.241 OA
ENDBRANCH   3  22
TORSDOF 7
ENDMDL
MODEL 2
REMARK VINA RESULT:      -5.0      2.277      4.463
REMARK  7 active torsions:
REMARK  status: ('A' for Active; 'I' for Inactive)
REMARK    1  A    between atoms: C_2  and  C_3 
REMARK    2  A    between atoms: C_3  and  O_6 
REMARK    3  A    between atoms: C_3  and  C_4 
REMARK    4  A    between atoms: C_7  and  O_6 
REMARK    5  A    between atoms: C_9  and  C_10 
REMARK    6  A    between atoms: N_15  and  C_14 
REMARK    7  A    between atoms: N_20  and  C_19 
REMARK       I    between atoms: C_22  and  N_20 
ROOT
ATOM      1  C   LIG d   1      -5.868  92.403 118.961  0.00  0.00     0.161 C 
ATOM      2  C   LIG d   1      -6.107  91.464 117.944  0.00  0.00     0.016 C 
ATOM      3  C   LIG d   1      -6.697  91.795 116.703  0.00  0.00     0.038 C 
ATOM      4  C   LIG d   1      -6.953  93.124 116.334  0.00  0.00     0.028 C 
ATOM      5  C   LIG d   1      -7.195  94.047 117.524  0.00  0.00    -0.047 C 
ATOM      6  C   LIG d   1      -6.038  93.876 118.535  0.00  0.00     0.091 C 
ENDROOT
BRANCH   1   7
ATOM      7  O   LIG d   1      -4.558  92.192 119.523  0.00  0.00    -0.368 OA
BRANCH   7   8
ATOM      8  C   LIG d   1      -3.477  92.022 118.573  0.00  0.00     0.119 C 
BRANCH   8   9
ATOM      9  C   LIG d   1      -2.812  90.664 118.867  0.00  0.00     0.028 C 
ATOM     10  C   LIG d   1      -3.055  89.637 117.749  0.00  0.00     0.006 C 
ENDBRANCH   8   9
BRANCH   8  11
ATOM     11  C   LIG d   1      -2.377  93.067 118.787  0.00  0.00     0.028 C 
ATOM     12  C   LIG d   1      -2.504  94.268 117.837  0.00  0.00     0.006 C 
ENDBRANCH   8  11
ENDBRANCH   7   8
ENDBRANCH   1   7
BRANCH   6  13
ATOM     13  N   LIG d   1      -6.240  94.681 119.768  0.00  0.00    -0.311 N 
ATOM     14  C   LIG d   1      -5.746  95.907 119.932  0.00  0.00     0.210 C 
ATOM     15  C   LIG d   1      -6.054  96.552 121.287  0.00  0.00     0.109 C 
ATOM     16  O   LIG d   1      -5.110  96.534 119.072  0.00  0.00    -0.276 OA
ATOM     17  H   LIG d   1      -6.771  94.261 120.505  0.00  0.00     0.149 HD
ENDBRANCH   6  13
BRANCH   5  18
ATOM     18  N   LIG d   1      -7.311  95.423 117.005  0.00  0.00     0.381 N 
ATOM     19  H   LIG d   1      -7.172  96.078 117.748  0.00  0.00    -0.090 HD
ATOM     20  H   LIG d   1      -8.237  95.555 116.638  0.00  0.00    -0.090 HD
ATOM     21  H   LIG d   1      -6.637  95.575 116.288  0.00  0.00    -0.090 HD
ENDBRANCH   5  18
BRANCH   3  22
ATOM     22  C   LIG d   1      -7.075  90.786 115.831  0.00  0.00     0.382 C 
ATOM     23  O   LIG d   1      -8.274  90.681 115.474  0.00  0.00    -0.241 OA
ATOM     24  O   LIG d   1      -6.241  89.952 115.430  0.00  0.00    -0.241 OA
ENDBRANCH   3  22
TORSDOF 7
ENDMDL
MODEL 3
REMARK VINA RESULT:      -5.0      3.397      6.121
REMARK  7 active torsions:
REMARK  status: ('A' for Active; 'I' for Inactive)
REMARK    1  A    between atoms: C_2  and  C_3 
REMARK    2  A    between atoms: C_3  and  O_6 
REMARK    3  A    between atoms: C_3  and  C_4 
REMARK    4  A    between atoms: C_7  and  O_6 
REMARK    5  A    between atoms: C_9  and  C_10 
REMARK    6  A    between atoms: N_15  and  C_14 
REMARK    7  A    between atoms: N_20  and  C_19 
REMARK       I    between atoms: C_22  and  N_20 
ROOT
ATOM      1  C   LIG d   1      -3.333  91.061 117.791  0.00  0.00     0.161 C 
ATOM      2  C   LIG d   1      -4.481  90.679 117.077  0.00  0.00     0.016 C 
ATOM      3  C   LIG d   1      -5.510  91.580 116.717  0.00  0.00     0.038 C 
ATOM      4  C   LIG d   1      -5.387  92.963 116.917  0.00  0.00     0.028 C 
ATOM      5  C   LIG d   1      -4.475  93.328 118.083  0.00  0.00    -0.047 C 
ATOM      6  C   LIG d   1      -3.130  92.585 117.920  0.00  0.00     0.091 C 
ENDROOT
BRANCH   1   7
ATOM      7  O   LIG d   1      -2.168  90.447 117.206  0.00  0.00    -0.368 OA
BRANCH   7   8
ATOM      8  C   LIG d   1      -1.824  89.130 117.702  0.00  0.00     0.119 C 
BRANCH   8   9
ATOM      9  C   LIG d   1      -2.030  89.142 119.229  0.00  0.00     0.028 C 
ATOM     10  C   LIG d   1      -2.821  87.919 119.723  0.00  0.00     0.006 C 
ENDBRANCH   8   9
BRANCH   8  11
ATOM     11  C   LIG d   1      -0.337  88.827 117.496  0.00  0.00     0.028 C 
ATOM     12  C   LIG d   1       0.439  90.021 116.916  0.00  0.00     0.006 C 
ENDBRANCH   8  11
ENDBRANCH   7   8
ENDBRANCH   1   7
BRANCH   6  13
ATOM     13  N   LIG d   1      -2.210  92.820 119.063  0.00  0.00    -0.311 N 
ATOM     14  C   LIG d   1      -0.935  93.177 118.917  0.00  0.00     0.210 C 
ATOM     15  C   LIG d   1      -0.157  93.349 120.226  0.00  0.00     0.109 C 
ATOM     16  O   LIG d   1      -0.383  93.400 117.829  0.00  0.00    -0.276 OA
ATOM     17  H   LIG d   1      -2.583  92.692 119.983  0.00  0.00     0.149 HD
ENDBRANCH   6  13
BRANCH   5  18
ATOM     18  N   LIG d   1      -4.328  94.795 118.092  0.00  0.00     0.381 N 
ATOM     19  H   LIG d   1      -4.841  95.183 118.858  0.00  0.00    -0.090 HD
ATOM     20  H   LIG d   1      -4.709  95.165 117.239  0.00  0.00    -0.090 HD
ATOM     21  H   LIG d   1      -3.365  95.041 118.168  0.00  0.00    -0.090 HD
ENDBRANCH   5  18
BRANCH   3  22
ATOM     22  C   LIG d   1      -6.695  91.094 116.186  0.00  0.00     0.382 C 
ATOM     23  O   LIG d   1      -7.761  91.737 116.338  0.00  0.00    -0.241 OA
ATOM     24  O   LIG d   1      -6.719  89.997 115.595  0.00  0.00    -0.241 OA
ENDBRANCH   3  22
TORSDOF 7
ENDMDL
MODEL 4
REMARK VINA RESULT:      -4.7      1.179      1.719
REMARK  7 active torsions:
REMARK  status: ('A' for Active; 'I' for Inactive)
REMARK    1  A    between atoms: C_2  and  C_3 
REMARK    2  A    between atoms: C_3  and  O_6 
REMARK    3  A    between atoms: C_3  and  C_4 
REMARK    4  A    between atoms: C_7  and  O_6 
REMARK    5  A    between atoms: C_9  and  C_10 
REMARK    6  A    between atoms: N_15  and  C_14 
REMARK    7  A    between atoms: N_20  and  C_19 
REMARK       I    between atoms: C_22  and  N_20 
ROOT
ATOM      1  C   LIG d   1      -6.286  94.046 117.803  0.00  0.00     0.161 C 
ATOM      2  C   LIG d   1      -6.972  92.921 117.315  0.00  0.00     0.016 C 
ATOM      3  C   LIG d   1      -6.339  91.691 117.022  0.00  0.00     0.038 C 
ATOM      4  C   LIG d   1      -4.994  91.454 117.342  0.00  0.00     0.028 C 
ATOM      5  C   LIG d   1      -4.146  92.721 117.367  0.00  0.00    -0.047 C 
ATOM      6  C   LIG d   1      -4.839  93.772 118.263  0.00  0.00     0.091 C 
ENDROOT
BRANCH   1   7
ATOM      7  O   LIG d   1      -7.044  94.656 118.867  0.00  0.00    -0.368 OA
BRANCH   7   8
ATOM      8  C   LIG d   1      -7.588  93.753 119.861  0.00  0.00     0.119 C 
BRANCH   8   9
ATOM      9  C   LIG d   1      -8.974  94.292 120.266  0.00  0.00     0.028 C 
ATOM     10  C   LIG d   1      -9.438  95.452 119.369  0.00  0.00     0.006 C 
ENDBRANCH   8   9
BRANCH   8  11
ATOM     11  C   LIG d   1      -6.755  93.770 121.146  0.00  0.00     0.028 C 
ATOM     12  C   LIG d   1      -6.226  95.171 121.495  0.00  0.00     0.006 C 
ENDBRANCH   8  11
ENDBRANCH   7   8
ENDBRANCH   1   7
BRANCH   6  13
ATOM     13  N   LIG d   1      -4.118  95.072 118.275  0.00  0.00    -0.311 N 
ATOM     14  C   LIG d   1      -3.245  95.417 119.220  0.00  0.00     0.210 C 
ATOM     15  C   LIG d   1      -2.629  96.810 119.054  0.00  0.00     0.109 C 
ATOM     16  O   LIG d   1      -2.899  94.689 120.163  0.00  0.00    -0.276 OA
ATOM     17  H   LIG d   1      -4.316  95.710 117.530  0.00  0.00     0.149 HD
ENDBRANCH   6  13
BRANCH   5  18
ATOM     18  N   LIG d   1      -2.802  92.348 117.848  0.00  0.00     0.381 N 
ATOM     19  H   LIG d   1      -2.740  92.503 118.834  0.00  0.00    -0.090 HD
ATOM     20  H   LIG d   1      -2.121  92.930 117.393  0.00  0.00    -0.090 HD
ATOM     21  H   LIG d   1      -2.620  91.390 117.643  0.00  0.00    -0.090 HD
ENDBRANCH   5  18
BRANCH   3  22
ATOM     22  C   LIG d   1      -7.045  90.695 116.365  0.00  0.00     0.382 C 
ATOM     23  O   LIG d   1      -8.207  90.401 116.736  0.00  0.00    -0.241 OA
ATOM     24  O   LIG d   1      -6.518  90.056 115.435  0.00  0.00    -0.241 OA
ENDBRANCH   3  22
TORSDOF 7
ENDMDL
MODEL 5
REMARK VINA RESULT:      -4.7      2.323      4.552
REMARK  7 active torsions:
REMARK  status: ('A' for Active; 'I' for Inactive)
REMARK    1  A    between atoms: C_2  and  C_3 
REMARK    2  A    between atoms: C_3  and  O_6 
REMARK    3  A    between atoms: C_3  and  C_4 
REMARK    4  A    between atoms: C_7  and  O_6 
REMARK    5  A    between atoms: C_9  and  C_10 
REMARK    6  A    between atoms: N_15  and  C_14 
REMARK    7  A    between atoms: N_20  and  C_19 
REMARK       I    between atoms: C_22  and  N_20 
ROOT
ATOM      1  C   LIG d   1      -4.881  92.490 118.482  0.00  0.00     0.161 C 
ATOM      2  C   LIG d   1      -5.463  91.480 117.698  0.00  0.00     0.016 C 
ATOM      3  C   LIG d   1      -6.527  91.712 116.796  0.00  0.00     0.038 C 
ATOM      4  C   LIG d   1      -6.984  93.006 116.504  0.00  0.00     0.028 C 
ATOM      5  C   LIG d   1      -6.768  93.996 117.644  0.00  0.00    -0.047 C 
ATOM      6  C   LIG d   1      -5.291  93.926 118.096  0.00  0.00     0.091 C 
ENDROOT
BRANCH   1   7
ATOM      7  O   LIG d   1      -3.446  92.357 118.464  0.00  0.00    -0.368 OA
BRANCH   7   8
ATOM      8  C   LIG d   1      -2.848  91.746 119.633  0.00  0.00     0.119 C 
BRANCH   8   9
ATOM      9  C   LIG d   1      -1.859  92.764 120.233  0.00  0.00     0.028 C 
ATOM     10  C   LIG d   1      -0.834  93.266 119.202  0.00  0.00     0.006 C 
ENDBRANCH   8   9
BRANCH   8  11
ATOM     11  C   LIG d   1      -1.996  90.530 119.253  0.00  0.00     0.028 C 
ATOM     12  C   LIG d   1      -2.841  89.283 118.951  0.00  0.00     0.006 C 
ENDBRANCH   8  11
ENDBRANCH   7   8
ENDBRANCH   1   7
BRANCH   6  13
ATOM     13  N   LIG d   1      -5.014  94.802 119.264  0.00  0.00    -0.311 N 
ATOM     14  C   LIG d   1      -3.973  95.630 119.330  0.00  0.00     0.210 C 
ATOM     15  C   LIG d   1      -3.862  96.428 120.632  0.00  0.00     0.109 C 
ATOM     16  O   LIG d   1      -3.148  95.802 118.419  0.00  0.00    -0.276 OA
ATOM     17  H   LIG d   1      -5.651  94.750 120.035  0.00  0.00     0.149 HD
ENDBRANCH   6  13
BRANCH   5  18
ATOM     18  N   LIG d   1      -7.161  95.331 117.156  0.00  0.00     0.381 N 
ATOM     19  H   LIG d   1      -8.153  95.365 117.027  0.00  0.00    -0.090 HD
ATOM     20  H   LIG d   1      -6.721  95.495 116.268  0.00  0.00    -0.090 HD
ATOM     21  H   LIG d   1      -6.880  96.029 117.809  0.00  0.00    -0.090 HD
ENDBRANCH   5  18
BRANCH   3  22
ATOM     22  C   LIG d   1      -7.173  90.637 116.204  0.00  0.00     0.382 C 
ATOM     23  O   LIG d   1      -8.372  90.396 116.482  0.00  0.00    -0.241 OA
ATOM     24  O   LIG d   1      -6.558  89.879 115.430  0.00  0.00    -0.241 OA
ENDBRANCH   3  22
TORSDOF 7
ENDMDL
MODEL 6
REMARK VINA RESULT:      -4.6      2.601      4.466
REMARK  7 active torsions:
REMARK  status: ('A' for Active; 'I' for Inactive)
REMARK    1  A    between atoms: C_2  and  C_3 
REMARK    2  A    between atoms: C_3  and  O_6 
REMARK    3  A    between atoms: C_3  and  C_4 
REMARK    4  A    between atoms: C_7  and  O_6 
REMARK    5  A    between atoms: C_9  and  C_10 
REMARK    6  A    between atoms: N_15  and  C_14 
REMARK    7  A    between atoms: N_20  and  C_19 
REMARK       I    between atoms: C_22  and  N_20 
ROOT
ATOM      1  C   LIG d   1      -3.864  93.310 117.739  0.00  0.00     0.161 C 
ATOM      2  C   LIG d   1      -5.250  93.216 117.531  0.00  0.00     0.016 C 
ATOM      3  C   LIG d   1      -5.912  92.000 117.242  0.00  0.00     0.038 C 
ATOM      4  C   LIG d   1      -5.249  90.765 117.292  0.00  0.00     0.028 C 
ATOM      5  C   LIG d   1      -3.756  90.866 117.001  0.00  0.00    -0.047 C 
ATOM      6  C   LIG d   1      -3.141  91.957 117.907  0.00  0.00     0.091 C 
ENDROOT
BRANCH   1   7
ATOM      7  O   LIG d   1      -3.597  94.164 118.869  0.00  0.00    -0.368 OA
BRANCH   7   8
ATOM      8  C   LIG d   1      -3.009  95.454 118.568  0.00  0.00     0.119 C 
BRANCH   8   9
ATOM      9  C   LIG d   1      -1.571  95.449 119.121  0.00  0.00     0.028 C 
ATOM     10  C   LIG d   1      -1.435  94.594 120.393  0.00  0.00     0.006 C 
ENDBRANCH   8   9
BRANCH   8  11
ATOM     11  C   LIG d   1      -3.727  96.582 119.315  0.00  0.00     0.028 C 
ATOM     12  C   LIG d   1      -5.073  96.139 119.912  0.00  0.00     0.006 C 
ENDBRANCH   8  11
ENDBRANCH   7   8
ENDBRANCH   1   7
BRANCH   6  13
ATOM     13  N   LIG d   1      -1.699  92.180 117.627  0.00  0.00    -0.311 N 
ATOM     14  C   LIG d   1      -0.720  91.590 118.311  0.00  0.00     0.210 C 
ATOM     15  C   LIG d   1       0.697  91.974 117.873  0.00  0.00     0.109 C 
ATOM     16  O   LIG d   1      -0.890  90.762 119.218  0.00  0.00    -0.276 OA
ATOM     17  H   LIG d   1      -1.470  92.814 116.886  0.00  0.00     0.149 HD
ENDBRANCH   6  13
BRANCH   5  18
ATOM     18  N   LIG d   1      -3.167  89.532 117.221  0.00  0.00     0.381 N 
ATOM     19  H   LIG d   1      -3.787  88.827 116.876  0.00  0.00    -0.090 HD
ATOM     20  H   LIG d   1      -3.046  89.389 118.208  0.00  0.00    -0.090 HD
ATOM     21  H   LIG d   1      -2.287  89.467 116.758  0.00  0.00    -0.090 HD
ENDBRANCH   5  18
BRANCH   3  22
ATOM     22  C   LIG d   1      -7.245  92.018 116.860  0.00  0.00     0.382 C 
ATOM     23  O   LIG d   1      -7.823  93.112 116.652  0.00  0.00    -0.241 OA
ATOM     24  O   LIG d   1      -7.889  90.956 116.764  0.00  0.00    -0.241 OA
ENDBRANCH   3  22
TORSDOF 7
ENDMDL
MODEL 7
REMARK VINA RESULT:      -4.6      2.432      4.509
REMARK  7 active torsions:
REMARK  status: ('A' for Active; 'I' for Inactive)
REMARK    1  A    between atoms: C_2  and  C_3 
REMARK    2  A    between atoms: C_3  and  O_6 
REMARK    3  A    between atoms: C_3  and  C_4 
REMARK    4  A    between atoms: C_7  and  O_6 
REMARK    5  A    between atoms: C_9  and  C_10 
REMARK    6  A    between atoms: N_15  and  C_14 
REMARK    7  A    between atoms: N_20  and  C_19 
REMARK       I    between atoms: C_22  and  N_20 
ROOT
ATOM      1  C   LIG d   1      -6.259  92.242 119.165  0.00  0.00     0.161 C 
ATOM      2  C   LIG d   1      -5.381  91.423 118.435  0.00  0.00     0.016 C 
ATOM      3  C   LIG d   1      -5.379  91.349 117.023  0.00  0.00     0.038 C 
ATOM      4  C   LIG d   1      -6.159  92.208 116.234  0.00  0.00     0.028 C 
ATOM      5  C   LIG d   1      -7.423  92.693 116.936  0.00  0.00    -0.047 C 
ATOM      6  C   LIG d   1      -7.040  93.268 118.319  0.00  0.00     0.091 C 
ENDROOT
BRANCH   1   7
ATOM      7  O   LIG d   1      -5.540  92.908 120.223  0.00  0.00    -0.368 OA
BRANCH   7   8
ATOM      8  C   LIG d   1      -4.095  92.881 120.127  0.00  0.00     0.119 C 
BRANCH   8   9
ATOM      9  C   LIG d   1      -3.544  92.545 121.526  0.00  0.00     0.028 C 
ATOM     10  C   LIG d   1      -4.645  92.079 122.494  0.00  0.00     0.006 C 
ENDBRANCH   8   9
BRANCH   8  11
ATOM     11  C   LIG d   1      -3.533  94.265 119.791  0.00  0.00     0.028 C 
ATOM     12  C   LIG d   1      -3.241  94.443 118.293  0.00  0.00     0.006 C 
ENDBRANCH   8  11
ENDBRANCH   7   8
ENDBRANCH   1   7
BRANCH   6  13
ATOM     13  N   LIG d   1      -8.229  93.689 119.106  0.00  0.00    -0.311 N 
ATOM     14  C   LIG d   1      -8.771  94.902 119.023  0.00  0.00     0.210 C 
ATOM     15  C   LIG d   1      -9.979  95.134 119.936  0.00  0.00     0.109 C 
ATOM     16  O   LIG d   1      -8.386  95.798 118.257  0.00  0.00    -0.276 OA
ATOM     17  H   LIG d   1      -8.624  93.013 119.730  0.00  0.00     0.149 HD
ENDBRANCH   6  13
BRANCH   5  18
ATOM     18  N   LIG d   1      -8.068  93.686 116.055  0.00  0.00     0.381 N 
ATOM     19  H   LIG d   1      -8.424  94.444 116.603  0.00  0.00    -0.090 HD
ATOM     20  H   LIG d   1      -8.839  93.248 115.582  0.00  0.00    -0.090 HD
ATOM     21  H   LIG d   1      -7.411  94.028 115.389  0.00  0.00    -0.090 HD
ENDBRANCH   5  18
BRANCH   3  22
ATOM     22  C   LIG d   1      -4.619  90.380 116.387  0.00  0.00     0.382 C 
ATOM     23  O   LIG d   1      -3.433  90.178 116.744  0.00  0.00    -0.241 OA
ATOM     24  O   LIG d   1      -5.089  89.734 115.431  0.00  0.00    -0.241 OA
ENDBRANCH   3  22
TORSDOF 7
ENDMDL
MODEL 8
REMARK VINA RESULT:      -4.5      2.719      5.043
REMARK  7 active torsions:
REMARK  status: ('A' for Active; 'I' for Inactive)
REMARK    1  A    between atoms: C_2  and  C_3 
REMARK    2  A    between atoms: C_3  and  O_6 
REMARK    3  A    between atoms: C_3  and  C_4 
REMARK    4  A    between atoms: C_7  and  O_6 
REMARK    5  A    between atoms: C_9  and  C_10 
REMARK    6  A    between atoms: N_15  and  C_14 
REMARK    7  A    between atoms: N_20  and  C_19 
REMARK       I    between atoms: C_22  and  N_20 
ROOT
ATOM      1  C   LIG d   1      -4.406  93.292 118.468  0.00  0.00     0.161 C 
ATOM      2  C   LIG d   1      -5.569  94.079 118.423  0.00  0.00     0.016 C 
ATOM      3  C   LIG d   1      -6.675  93.786 117.592  0.00  0.00     0.038 C 
ATOM      4  C   LIG d   1      -6.754  92.594 116.856  0.00  0.00     0.028 C 
ATOM      5  C   LIG d   1      -5.391  92.021 116.483  0.00  0.00    -0.047 C 
ATOM      6  C   LIG d   1      -4.520  91.928 117.756  0.00  0.00     0.091 C 
ENDROOT
BRANCH   1   7
ATOM      7  O   LIG d   1      -3.993  93.109 119.837  0.00  0.00    -0.368 OA
BRANCH   7   8
ATOM      8  C   LIG d   1      -4.570  91.976 120.531  0.00  0.00     0.119 C 
BRANCH   8   9
ATOM      9  C   LIG d   1      -5.371  92.526 121.727  0.00  0.00     0.028 C 
ATOM     10  C   LIG d   1      -6.891  92.408 121.519  0.00  0.00     0.006 C 
ENDBRANCH   8   9
BRANCH   8  11
ATOM     11  C   LIG d   1      -3.484  91.087 121.145  0.00  0.00     0.028 C 
ATOM     12  C   LIG d   1      -2.073  91.673 120.984  0.00  0.00     0.006 C 
ENDBRANCH   8  11
ENDBRANCH   7   8
ENDBRANCH   1   7
BRANCH   6  13
ATOM     13  N   LIG d   1      -3.141  91.455 117.466  0.00  0.00    -0.311 N 
ATOM     14  C   LIG d   1      -2.756  90.188 117.604  0.00  0.00     0.210 C 
ATOM     15  C   LIG d   1      -1.285  89.919 117.271  0.00  0.00     0.109 C 
ATOM     16  O   LIG d   1      -3.501  89.255 117.941  0.00  0.00    -0.276 OA
ATOM     17  H   LIG d   1      -2.479  92.141 117.158  0.00  0.00     0.149 HD
ENDBRANCH   6  13
BRANCH   5  18
ATOM     18  N   LIG d   1      -5.619  90.712 115.841  0.00  0.00     0.381 N 
ATOM     19  H   LIG d   1      -5.885  90.845 114.886  0.00  0.00    -0.090 HD
ATOM     20  H   LIG d   1      -6.370  90.244 116.316  0.00  0.00    -0.090 HD
ATOM     21  H   LIG d   1      -4.791  90.160 115.889  0.00  0.00    -0.090 HD
ENDBRANCH   5  18
BRANCH   3  22
ATOM     22  C   LIG d   1      -7.699  94.711 117.460  0.00  0.00     0.382 C 
ATOM     23  O   LIG d   1      -7.456  95.936 117.574  0.00  0.00    -0.241 OA
ATOM     24  O   LIG d   1      -8.871  94.333 117.273  0.00  0.00    -0.241 OA
ENDBRANCH   3  22
TORSDOF 7
ENDMDL
MODEL 9
REMARK VINA RESULT:      -4.5      2.546      3.605
REMARK  7 active torsions:
REMARK  status: ('A' for Active; 'I' for Inactive)
REMARK    1  A    between atoms: C_2  and  C_3 
REMARK    2  A    between atoms: C_3  and  O_6 
REMARK    3  A    between atoms: C_3  and  C_4 
REMARK    4  A    between atoms: C_7  and  O_6 
REMARK    5  A    between atoms: C_9  and  C_10 
REMARK    6  A    between atoms: N_15  and  C_14 
REMARK    7  A    between atoms: N_20  and  C_19 
REMARK       I    between atoms: C_22  and  N_20 
ROOT
ATOM      1  C   LIG d   1      -4.070  93.309 117.644  0.00  0.00     0.161 C 
ATOM      2  C   LIG d   1      -5.420  93.147 117.292  0.00  0.00     0.016 C 
ATOM      3  C   LIG d   1      -5.986  91.902 116.934  0.00  0.00     0.038 C 
ATOM      4  C   LIG d   1      -5.271  90.700 117.052  0.00  0.00     0.028 C 
ATOM      5  C   LIG d   1      -3.763  90.878 116.919  0.00  0.00    -0.047 C 
ATOM      6  C   LIG d   1      -3.302  91.993 117.886  0.00  0.00     0.091 C 
ENDROOT
BRANCH   1   7
ATOM      7  O   LIG d   1      -3.966  94.169 118.796  0.00  0.00    -0.368 OA
BRANCH   7   8
ATOM      8  C   LIG d   1      -5.144  94.256 119.635  0.00  0.00     0.119 C 
BRANCH   8   9
ATOM      9  C   LIG d   1      -5.208  95.690 120.195  0.00  0.00     0.028 C 
ATOM     10  C   LIG d   1      -5.563  96.727 119.116  0.00  0.00     0.006 C 
ENDBRANCH   8   9
BRANCH   8  11
ATOM     11  C   LIG d   1      -5.025  93.346 120.861  0.00  0.00     0.028 C 
ATOM     12  C   LIG d   1      -6.071  92.221 120.872  0.00  0.00     0.006 C 
ENDBRANCH   8  11
ENDBRANCH   7   8
ENDBRANCH   1   7
BRANCH   6  13
ATOM     13  N   LIG d   1      -1.851  92.289 117.759  0.00  0.00    -0.311 N 
ATOM     14  C   LIG d   1      -0.918  91.725 118.523  0.00  0.00     0.210 C 
ATOM     15  C   LIG d   1       0.516  92.186 118.240  0.00  0.00     0.109 C 
ATOM     16  O   LIG d   1      -1.138  90.863 119.387  0.00  0.00    -0.276 OA
ATOM     17  H   LIG d   1      -1.581  92.955 117.061  0.00  0.00     0.149 HD
ENDBRANCH   6  13
BRANCH   5  18
ATOM     18  N   LIG d   1      -3.134  89.574 117.198  0.00  0.00     0.381 N 
ATOM     19  H   LIG d   1      -2.202  89.562 116.833  0.00  0.00    -0.090 HD
ATOM     20  H   LIG d   1      -3.662  88.853 116.739  0.00  0.00    -0.090 HD
ATOM     21  H   LIG d   1      -3.115  89.408 118.181  0.00  0.00    -0.090 HD
ENDBRANCH   5  18
BRANCH   3  22
ATOM     22  C   LIG d   1      -7.271  91.855 116.414  0.00  0.00     0.382 C 
ATOM     23  O   LIG d   1      -7.980  90.834 116.585  0.00  0.00    -0.241 OA
ATOM     24  O   LIG d   1      -7.714  92.803 115.739  0.00  0.00    -0.241 OA
ENDBRANCH   3  22
TORSDOF 7
ENDMDL
