MODEL 1
REMARK VINA RESULT:      -5.1      0.000      0.000
REMARK  7 active torsions:
REMARK  status: ('A' for Active; 'I' for Inactive)
REMARK    1  A    between atoms: C_2  and  C_3 
REMARK    2  A    between atoms: C_3  and  O_6 
REMARK    3  A    between atoms: C_3  and  C_4 
REMARK    4  A    between atoms: C_7  and  O_6 
REMARK    5  A    between atoms: C_9  and  C_10 
REMARK    6  A    between atoms: N_15  and  C_14 
REMARK    7  A    between atoms: N_20  and  C_19 
REMARK       I    between atoms: C_22  and  N_20 
ROOT
ATOM      1  C   LIG d   1      -5.367  91.876 120.213  0.00  0.00     0.161 C 
ATOM      2  C   LIG d   1      -6.766  91.928 120.105  0.00  0.00     0.016 C 
ATOM      3  C   LIG d   1      -7.490  93.132 119.943  0.00  0.00     0.038 C 
ATOM      4  C   LIG d   1      -6.848  94.360 119.724  0.00  0.00     0.028 C 
ATOM      5  C   LIG d   1      -5.449  94.428 120.328  0.00  0.00    -0.047 C 
ATOM      6  C   LIG d   1      -4.642  93.193 119.865  0.00  0.00     0.091 C 
ENDROOT
BRANCH   1   7
ATOM      7  O   LIG d   1      -4.855  90.795 119.409  0.00  0.00    -0.368 OA
BRANCH   7   8
ATOM      8  C   LIG d   1      -4.474  91.134 118.053  0.00  0.00     0.119 C 
BRANCH   8   9
ATOM      9  C   LIG d   1      -5.478  90.449 117.105  0.00  0.00     0.028 C 
ATOM     10  C   LIG d   1      -6.377  91.460 116.372  0.00  0.00     0.006 C 
ENDBRANCH   8   9
BRANCH   8  11
ATOM     11  C   LIG d   1      -3.108  90.543 117.693  0.00  0.00     0.028 C 
ATOM     12  C   LIG d   1      -2.368  89.968 118.911  0.00  0.00     0.006 C 
ENDBRANCH   8  11
ENDBRANCH   7   8
ENDBRANCH   1   7
BRANCH   6  13
ATOM     13  N   LIG d   1      -3.289  93.138 120.478  0.00  0.00    -0.311 N 
ATOM     14  C   LIG d   1      -2.190  93.580 119.870  0.00  0.00     0.210 C 
ATOM     15  C   LIG d   1      -0.895  93.410 120.671  0.00  0.00     0.109 C 
ATOM     16  O   LIG d   1      -2.168  94.125 118.757  0.00  0.00    -0.276 OA
ATOM     17  H   LIG d   1      -3.220  92.739 121.394  0.00  0.00     0.149 HD
ENDBRANCH   6  13
BRANCH   5  18
ATOM     18  N   LIG d   1      -4.844  95.705 119.908  0.00  0.00     0.381 N 
ATOM     19  H   LIG d   1      -4.705  95.705 118.918  0.00  0.00    -0.090 HD
ATOM     20  H   LIG d   1      -3.948  95.802 120.352  0.00  0.00    -0.090 HD
ATOM     21  H   LIG d   1      -5.435  96.464 120.168  0.00  0.00    -0.090 HD
ENDBRANCH   5  18
BRANCH   3  22
ATOM     22  C   LIG d   1      -8.873  93.120 120.039  0.00  0.00     0.382 C 
ATOM     23  O   LIG d   1      -9.432  92.501 120.976  0.00  0.00    -0.241 OA
ATOM     24  O   LIG d   1      -9.571  93.684 119.174  0.00  0.00    -0.241 OA
ENDBRANCH   3  22
TORSDOF 7
ENDMDL
MODEL 2
REMARK VINA RESULT:      -5.0      2.365      4.035
REMARK  7 active torsions:
REMARK  status: ('A' for Active; 'I' for Inactive)
REMARK    1  A    between atoms: C_2  and  C_3 
REMARK    2  A    between atoms: C_3  and  O_6 
REMARK    3  A    between atoms: C_3  and  C_4 
REMARK    4  A    between atoms: C_7  and  O_6 
REMARK    5  A    between atoms: C_9  and  C_10 
REMARK    6  A    between atoms: N_15  and  C_14 
REMARK    7  A    between atoms: N_20  and  C_19 
REMARK       I    between atoms: C_22  and  N_20 
ROOT
ATOM      1  C   LIG d   1      -5.599  92.253 118.798  0.00  0.00     0.161 C 
ATOM      2  C   LIG d   1      -6.588  91.489 118.157  0.00  0.00     0.016 C 
ATOM      3  C   LIG d   1      -6.302  90.503 117.185  0.00  0.00     0.038 C 
ATOM      4  C   LIG d   1      -4.988  90.107 116.895  0.00  0.00     0.028 C 
ATOM      5  C   LIG d   1      -3.956  91.201 117.147  0.00  0.00    -0.047 C 
ATOM      6  C   LIG d   1      -4.154  91.758 118.576  0.00  0.00     0.091 C 
ENDROOT
BRANCH   1   7
ATOM      7  O   LIG d   1      -5.886  92.343 120.207  0.00  0.00    -0.368 OA
BRANCH   7   8
ATOM      8  C   LIG d   1      -6.109  91.086 120.893  0.00  0.00     0.119 C 
BRANCH   8   9
ATOM      9  C   LIG d   1      -7.275  91.296 121.878  0.00  0.00     0.028 C 
ATOM     10  C   LIG d   1      -8.270  92.363 121.390  0.00  0.00     0.006 C 
ENDBRANCH   8   9
BRANCH   8  11
ATOM     11  C   LIG d   1      -4.907  90.706 121.764  0.00  0.00     0.028 C 
ATOM     12  C   LIG d   1      -4.242  89.393 121.321  0.00  0.00     0.006 C 
ENDBRANCH   8  11
ENDBRANCH   7   8
ENDBRANCH   1   7
BRANCH   6  13
ATOM     13  N   LIG d   1      -3.239  92.890 118.874  0.00  0.00    -0.311 N 
ATOM     14  C   LIG d   1      -2.072  92.745 119.499  0.00  0.00     0.210 C 
ATOM     15  C   LIG d   1      -1.293  94.045 119.726  0.00  0.00     0.109 C 
ATOM     16  O   LIG d   1      -1.593  91.659 119.859  0.00  0.00    -0.276 OA
ATOM     17  H   LIG d   1      -3.536  93.803 118.590  0.00  0.00     0.149 HD
ENDBRANCH   6  13
BRANCH   5  18
ATOM     18  N   LIG d   1      -2.620  90.611 116.937  0.00  0.00     0.381 N 
ATOM     19  H   LIG d   1      -2.681  89.613 116.975  0.00  0.00    -0.090 HD
ATOM     20  H   LIG d   1      -2.010  90.918 117.673  0.00  0.00    -0.090 HD
ATOM     21  H   LIG d   1      -2.257  90.895 116.054  0.00  0.00    -0.090 HD
ENDBRANCH   5  18
BRANCH   3  22
ATOM     22  C   LIG d   1      -7.337  89.930 116.462  0.00  0.00     0.382 C 
ATOM     23  O   LIG d   1      -7.771  90.498 115.430  0.00  0.00    -0.241 OA
ATOM     24  O   LIG d   1      -7.873  88.876 116.852  0.00  0.00    -0.241 OA
ENDBRANCH   3  22
TORSDOF 7
ENDMDL
MODEL 3
REMARK VINA RESULT:      -4.9      0.880      1.802
REMARK  7 active torsions:
REMARK  status: ('A' for Active; 'I' for Inactive)
REMARK    1  A    between atoms: C_2  and  C_3 
REMARK    2  A    between atoms: C_3  and  O_6 
REMARK    3  A    between atoms: C_3  and  C_4 
REMARK    4  A    between atoms: C_7  and  O_6 
REMARK    5  A    between atoms: C_9  and  C_10 
REMARK    6  A    between atoms: N_15  and  C_14 
REMARK    7  A    between atoms: N_20  and  C_19 
REMARK       I    between atoms: C_22  and  N_20 
ROOT
ATOM      1  C   LIG d   1      -5.329  92.264 119.463  0.00  0.00     0.161 C 
ATOM      2  C   LIG d   1      -6.714  92.342 119.237  0.00  0.00     0.016 C 
ATOM      3  C   LIG d   1      -7.506  93.444 119.633  0.00  0.00     0.038 C 
ATOM      4  C   LIG d   1      -6.939  94.617 120.151  0.00  0.00     0.028 C 
ATOM      5  C   LIG d   1      -5.609  94.385 120.861  0.00  0.00    -0.047 C 
ATOM      6  C   LIG d   1      -4.675  93.583 119.927  0.00  0.00     0.091 C 
ENDROOT
BRANCH   1   7
ATOM      7  O   LIG d   1      -4.669  91.765 118.283  0.00  0.00    -0.368 OA
BRANCH   7   8
ATOM      8  C   LIG d   1      -4.619  90.324 118.143  0.00  0.00     0.119 C 
BRANCH   8   9
ATOM      9  C   LIG d   1      -3.252  89.853 118.676  0.00  0.00     0.028 C 
ATOM     10  C   LIG d   1      -2.078  90.601 118.021  0.00  0.00     0.006 C 
ENDBRANCH   8   9
BRANCH   8  11
ATOM     11  C   LIG d   1      -4.645  89.906 116.669  0.00  0.00     0.028 C 
ATOM     12  C   LIG d   1      -5.583  90.779 115.820  0.00  0.00     0.006 C 
ENDBRANCH   8  11
ENDBRANCH   7   8
ENDBRANCH   1   7
BRANCH   6  13
ATOM     13  N   LIG d   1      -3.383  93.240 120.576  0.00  0.00    -0.311 N 
ATOM     14  C   LIG d   1      -2.268  93.949 120.410  0.00  0.00     0.210 C 
ATOM     15  C   LIG d   1      -1.042  93.410 121.154  0.00  0.00     0.109 C 
ATOM     16  O   LIG d   1      -2.185  94.991 119.743  0.00  0.00    -0.276 OA
ATOM     17  H   LIG d   1      -3.368  92.426 121.160  0.00  0.00     0.149 HD
ENDBRANCH   6  13
BRANCH   5  18
ATOM     18  N   LIG d   1      -5.064  95.705 121.229  0.00  0.00     0.381 N 
ATOM     19  H   LIG d   1      -5.300  95.916 122.178  0.00  0.00    -0.090 HD
ATOM     20  H   LIG d   1      -5.479  96.405 120.638  0.00  0.00    -0.090 HD
ATOM     21  H   LIG d   1      -4.074  95.709 121.116  0.00  0.00    -0.090 HD
ENDBRANCH   5  18
BRANCH   3  22
ATOM     22  C   LIG d   1      -8.888  93.362 119.549  0.00  0.00     0.382 C 
ATOM     23  O   LIG d   1      -9.512  92.543 120.266  0.00  0.00    -0.241 OA
ATOM     24  O   LIG d   1      -9.514  94.065 118.733  0.00  0.00    -0.241 OA
ENDBRANCH   3  22
TORSDOF 7
ENDMDL
MODEL 4
REMARK VINA RESULT:      -4.6      2.067      4.443
REMARK  7 active torsions:
REMARK  status: ('A' for Active; 'I' for Inactive)
REMARK    1  A    between atoms: C_2  and  C_3 
REMARK    2  A    between atoms: C_3  and  O_6 
REMARK    3  A    between atoms: C_3  and  C_4 
REMARK    4  A    between atoms: C_7  and  O_6 
REMARK    5  A    between atoms: C_9  and  C_10 
REMARK    6  A    between atoms: N_15  and  C_14 
REMARK    7  A    between atoms: N_20  and  C_19 
REMARK       I    between atoms: C_22  and  N_20 
ROOT
ATOM      1  C   LIG d   1      -5.691  92.404 119.062  0.00  0.00     0.161 C 
ATOM      2  C   LIG d   1      -6.410  91.505 118.257  0.00  0.00     0.016 C 
ATOM      3  C   LIG d   1      -5.798  90.623 117.337  0.00  0.00     0.038 C 
ATOM      4  C   LIG d   1      -4.405  90.474 117.268  0.00  0.00     0.028 C 
ATOM      5  C   LIG d   1      -3.640  91.720 117.700  0.00  0.00    -0.047 C 
ATOM      6  C   LIG d   1      -4.165  92.177 119.080  0.00  0.00     0.091 C 
ENDROOT
BRANCH   1   7
ATOM      7  O   LIG d   1      -6.216  92.387 120.404  0.00  0.00    -0.368 OA
BRANCH   7   8
ATOM      8  C   LIG d   1      -6.599  93.671 120.955  0.00  0.00     0.119 C 
BRANCH   8   9
ATOM      9  C   LIG d   1      -7.893  93.460 121.764  0.00  0.00     0.028 C 
ATOM     10  C   LIG d   1      -9.078  93.040 120.878  0.00  0.00     0.006 C 
ENDBRANCH   8   9
BRANCH   8  11
ATOM     11  C   LIG d   1      -6.969  94.664 119.849  0.00  0.00     0.028 C 
ATOM     12  C   LIG d   1      -6.409  96.073 120.101  0.00  0.00     0.006 C 
ENDBRANCH   8  11
ENDBRANCH   7   8
ENDBRANCH   1   7
BRANCH   6  13
ATOM     13  N   LIG d   1      -3.528  93.439 119.539  0.00  0.00    -0.311 N 
ATOM     14  C   LIG d   1      -2.461  93.475 120.336  0.00  0.00     0.210 C 
ATOM     15  C   LIG d   1      -1.976  94.880 120.704  0.00  0.00     0.109 C 
ATOM     16  O   LIG d   1      -1.851  92.476 120.746  0.00  0.00    -0.276 OA
ATOM     17  H   LIG d   1      -3.940  94.297 119.228  0.00  0.00     0.149 HD
ENDBRANCH   6  13
BRANCH   5  18
ATOM     18  N   LIG d   1      -2.204  91.380 117.711  0.00  0.00     0.381 N 
ATOM     19  H   LIG d   1      -1.691  92.062 117.190  0.00  0.00    -0.090 HD
ATOM     20  H   LIG d   1      -2.079  90.486 117.270  0.00  0.00    -0.090 HD
ATOM     21  H   LIG d   1      -1.869  91.347 118.649  0.00  0.00    -0.090 HD
ENDBRANCH   5  18
BRANCH   3  22
ATOM     22  C   LIG d   1      -6.582  89.907 116.445  0.00  0.00     0.382 C 
ATOM     23  O   LIG d   1      -7.806  89.748 116.674  0.00  0.00    -0.241 OA
ATOM     24  O   LIG d   1      -6.073  89.381 115.438  0.00  0.00    -0.241 OA
ENDBRANCH   3  22
TORSDOF 7
ENDMDL
MODEL 5
REMARK VINA RESULT:      -4.5      2.866      6.648
REMARK  7 active torsions:
REMARK  status: ('A' for Active; 'I' for Inactive)
REMARK    1  A    between atoms: C_2  and  C_3 
REMARK    2  A    between atoms: C_3  and  O_6 
REMARK    3  A    between atoms: C_3  and  C_4 
REMARK    4  A    between atoms: C_7  and  O_6 
REMARK    5  A    between atoms: C_9  and  C_10 
REMARK    6  A    between atoms: N_15  and  C_14 
REMARK    7  A    between atoms: N_20  and  C_19 
REMARK       I    between atoms: C_22  and  N_20 
ROOT
ATOM      1  C   LIG d   1      -1.277  90.991 117.636  0.00  0.00     0.161 C 
ATOM      2  C   LIG d   1       0.082  91.331 117.741  0.00  0.00     0.016 C 
ATOM      3  C   LIG d   1       0.535  92.613 118.131  0.00  0.00     0.038 C 
ATOM      4  C   LIG d   1      -0.346  93.602 118.592  0.00  0.00     0.028 C 
ATOM      5  C   LIG d   1      -1.755  93.471 118.023  0.00  0.00    -0.047 C 
ATOM      6  C   LIG d   1      -2.251  92.023 118.242  0.00  0.00     0.091 C 
ENDROOT
BRANCH   1   7
ATOM      7  O   LIG d   1      -1.501  89.691 118.216  0.00  0.00    -0.368 OA
BRANCH   7   8
ATOM      8  C   LIG d   1      -0.979  89.490 119.553  0.00  0.00     0.119 C 
BRANCH   8   9
ATOM      9  C   LIG d   1      -0.330  88.093 119.592  0.00  0.00     0.028 C 
ATOM     10  C   LIG d   1       1.131  88.110 119.113  0.00  0.00     0.006 C 
ENDBRANCH   8   9
BRANCH   8  11
ATOM     11  C   LIG d   1      -2.105  89.444 120.590  0.00  0.00     0.028 C 
ATOM     12  C   LIG d   1      -3.385  88.787 120.051  0.00  0.00     0.006 C 
ENDBRANCH   8  11
ENDBRANCH   7   8
ENDBRANCH   1   7
BRANCH   6  13
ATOM     13  N   LIG d   1      -3.589  91.786 117.640  0.00  0.00    -0.311 N 
ATOM     14  C   LIG d   1      -4.723  91.825 118.336  0.00  0.00     0.210 C 
ATOM     15  C   LIG d   1      -5.990  91.532 117.526  0.00  0.00     0.109 C 
ATOM     16  O   LIG d   1      -4.804  92.107 119.541  0.00  0.00    -0.276 OA
ATOM     17  H   LIG d   1      -3.619  91.581 116.660  0.00  0.00     0.149 HD
ENDBRANCH   6  13
BRANCH   5  18
ATOM     18  N   LIG d   1      -2.600  94.479 118.691  0.00  0.00     0.381 N 
ATOM     19  H   LIG d   1      -2.617  94.307 119.677  0.00  0.00    -0.090 HD
ATOM     20  H   LIG d   1      -3.539  94.399 118.341  0.00  0.00    -0.090 HD
ATOM     21  H   LIG d   1      -2.247  95.393 118.512  0.00  0.00    -0.090 HD
ENDBRANCH   5  18
BRANCH   3  22
ATOM     22  C   LIG d   1       1.882  92.927 118.025  0.00  0.00     0.382 C 
ATOM     23  O   LIG d   1       2.360  93.264 116.915  0.00  0.00    -0.241 OA
ATOM     24  O   LIG d   1       2.632  92.835 119.014  0.00  0.00    -0.241 OA
ENDBRANCH   3  22
TORSDOF 7
ENDMDL
MODEL 6
REMARK VINA RESULT:      -4.4      2.465      5.890
REMARK  7 active torsions:
REMARK  status: ('A' for Active; 'I' for Inactive)
REMARK    1  A    between atoms: C_2  and  C_3 
REMARK    2  A    between atoms: C_3  and  O_6 
REMARK    3  A    between atoms: C_3  and  C_4 
REMARK    4  A    between atoms: C_7  and  O_6 
REMARK    5  A    between atoms: C_9  and  C_10 
REMARK    6  A    between atoms: N_15  and  C_14 
REMARK    7  A    between atoms: N_20  and  C_19 
REMARK       I    between atoms: C_22  and  N_20 
ROOT
ATOM      1  C   LIG d   1      -5.966  91.887 119.121  0.00  0.00     0.161 C 
ATOM      2  C   LIG d   1      -4.904  92.573 119.733  0.00  0.00     0.016 C 
ATOM      3  C   LIG d   1      -3.563  92.484 119.294  0.00  0.00     0.038 C 
ATOM      4  C   LIG d   1      -3.214  91.816 118.111  0.00  0.00     0.028 C 
ATOM      5  C   LIG d   1      -4.177  90.692 117.743  0.00  0.00    -0.047 C 
ATOM      6  C   LIG d   1      -5.621  91.242 117.763  0.00  0.00     0.091 C 
ENDROOT
BRANCH   1   7
ATOM      7  O   LIG d   1      -7.101  92.764 118.986  0.00  0.00    -0.368 OA
BRANCH   7   8
ATOM      8  C   LIG d   1      -7.519  93.457 120.188  0.00  0.00     0.119 C 
BRANCH   8   9
ATOM      9  C   LIG d   1      -8.857  92.838 120.637  0.00  0.00     0.028 C 
ATOM     10  C   LIG d   1      -8.911  92.597 122.155  0.00  0.00     0.006 C 
ENDBRANCH   8   9
BRANCH   8  11
ATOM     11  C   LIG d   1      -7.828  94.929 119.903  0.00  0.00     0.028 C 
ATOM     12  C   LIG d   1      -6.576  95.820 119.943  0.00  0.00     0.006 C 
ENDBRANCH   8  11
ENDBRANCH   7   8
ENDBRANCH   1   7
BRANCH   6  13
ATOM     13  N   LIG d   1      -6.633  90.186 117.496  0.00  0.00    -0.311 N 
ATOM     14  C   LIG d   1      -7.413  90.175 116.417  0.00  0.00     0.210 C 
ATOM     15  C   LIG d   1      -8.402  89.007 116.346  0.00  0.00     0.109 C 
ATOM     16  O   LIG d   1      -7.358  91.003 115.495  0.00  0.00    -0.276 OA
ATOM     17  H   LIG d   1      -6.723  89.458 118.178  0.00  0.00     0.149 HD
ENDBRANCH   6  13
BRANCH   5  18
ATOM     18  N   LIG d   1      -3.773  90.174 116.422  0.00  0.00     0.381 N 
ATOM     19  H   LIG d   1      -4.583  90.028 115.853  0.00  0.00    -0.090 HD
ATOM     20  H   LIG d   1      -3.312  89.290 116.547  0.00  0.00    -0.090 HD
ATOM     21  H   LIG d   1      -3.157  90.818 115.977  0.00  0.00    -0.090 HD
ENDBRANCH   5  18
BRANCH   3  22
ATOM     22  C   LIG d   1      -2.550  93.034 120.063  0.00  0.00     0.382 C 
ATOM     23  O   LIG d   1      -2.819  93.909 120.922  0.00  0.00    -0.241 OA
ATOM     24  O   LIG d   1      -1.364  92.700 119.879  0.00  0.00    -0.241 OA
ENDBRANCH   3  22
TORSDOF 7
ENDMDL
MODEL 7
REMARK VINA RESULT:      -4.4      3.164      5.863
REMARK  7 active torsions:
REMARK  status: ('A' for Active; 'I' for Inactive)
REMARK    1  A    between atoms: C_2  and  C_3 
REMARK    2  A    between atoms: C_3  and  O_6 
REMARK    3  A    between atoms: C_3  and  C_4 
REMARK    4  A    between atoms: C_7  and  O_6 
REMARK    5  A    between atoms: C_9  and  C_10 
REMARK    6  A    between atoms: N_15  and  C_14 
REMARK    7  A    between atoms: N_20  and  C_19 
REMARK       I    between atoms: C_22  and  N_20 
ROOT
ATOM      1  C   LIG d   1      -1.566  92.996 117.861  0.00  0.00     0.161 C 
ATOM      2  C   LIG d   1      -0.958  94.010 118.620  0.00  0.00     0.016 C 
ATOM      3  C   LIG d   1      -1.549  94.581 119.771  0.00  0.00     0.038 C 
ATOM      4  C   LIG d   1      -2.728  94.067 120.332  0.00  0.00     0.028 C 
ATOM      5  C   LIG d   1      -3.633  93.379 119.315  0.00  0.00    -0.047 C 
ATOM      6  C   LIG d   1      -2.801  92.347 118.521  0.00  0.00     0.091 C 
ENDROOT
BRANCH   1   7
ATOM      7  O   LIG d   1      -0.592  91.990 117.521  0.00  0.00    -0.368 OA
BRANCH   7   8
ATOM      8  C   LIG d   1       0.534  91.862 118.423  0.00  0.00     0.119 C 
BRANCH   8   9
ATOM      9  C   LIG d   1       1.797  91.666 117.562  0.00  0.00     0.028 C 
ATOM     10  C   LIG d   1       2.696  92.913 117.546  0.00  0.00     0.006 C 
ENDBRANCH   8   9
BRANCH   8  11
ATOM     11  C   LIG d   1       0.423  90.595 119.276  0.00  0.00     0.028 C 
ATOM     12  C   LIG d   1      -0.492  89.532 118.647  0.00  0.00     0.006 C 
ENDBRANCH   8  11
ENDBRANCH   7   8
ENDBRANCH   1   7
BRANCH   6  13
ATOM     13  N   LIG d   1      -3.590  91.688 117.447  0.00  0.00    -0.311 N 
ATOM     14  C   LIG d   1      -4.183  90.505 117.594  0.00  0.00     0.210 C 
ATOM     15  C   LIG d   1      -4.929  89.997 116.356  0.00  0.00     0.109 C 
ATOM     16  O   LIG d   1      -4.188  89.841 118.642  0.00  0.00    -0.276 OA
ATOM     17  H   LIG d   1      -3.664  92.172 116.574  0.00  0.00     0.149 HD
ENDBRANCH   6  13
BRANCH   5  18
ATOM     18  N   LIG d   1      -4.754  92.772 120.056  0.00  0.00     0.381 N 
ATOM     19  H   LIG d   1      -5.096  93.416 120.741  0.00  0.00    -0.090 HD
ATOM     20  H   LIG d   1      -4.423  91.951 120.531  0.00  0.00    -0.090 HD
ATOM     21  H   LIG d   1      -5.486  92.527 119.425  0.00  0.00    -0.090 HD
ENDBRANCH   5  18
BRANCH   3  22
ATOM     22  C   LIG d   1      -0.979  95.704 120.351  0.00  0.00     0.382 C 
ATOM     23  O   LIG d   1      -0.048  95.576 121.183  0.00  0.00    -0.241 OA
ATOM     24  O   LIG d   1      -1.413  96.841 120.087  0.00  0.00    -0.241 OA
ENDBRANCH   3  22
TORSDOF 7
ENDMDL
MODEL 8
REMARK VINA RESULT:      -4.4      3.600      5.379
REMARK  7 active torsions:
REMARK  status: ('A' for Active; 'I' for Inactive)
REMARK    1  A    between atoms: C_2  and  C_3 
REMARK    2  A    between atoms: C_3  and  O_6 
REMARK    3  A    between atoms: C_3  and  C_4 
REMARK    4  A    between atoms: C_7  and  O_6 
REMARK    5  A    between atoms: C_9  and  C_10 
REMARK    6  A    between atoms: N_15  and  C_14 
REMARK    7  A    between atoms: N_20  and  C_19 
REMARK       I    between atoms: C_22  and  N_20 
ROOT
ATOM      1  C   LIG d   1      -1.868  91.615 118.496  0.00  0.00     0.161 C 
ATOM      2  C   LIG d   1      -2.418  92.818 118.968  0.00  0.00     0.016 C 
ATOM      3  C   LIG d   1      -1.705  94.039 119.004  0.00  0.00     0.038 C 
ATOM      4  C   LIG d   1      -0.433  94.172 118.426  0.00  0.00     0.028 C 
ATOM      5  C   LIG d   1       0.357  92.868 118.393  0.00  0.00    -0.047 C 
ATOM      6  C   LIG d   1      -0.520  91.765 117.759  0.00  0.00     0.091 C 
ENDROOT
BRANCH   1   7
ATOM      7  O   LIG d   1      -2.824  90.936 117.659  0.00  0.00    -0.368 OA
BRANCH   7   8
ATOM      8  C   LIG d   1      -4.220  91.211 117.933  0.00  0.00     0.119 C 
BRANCH   8   9
ATOM      9  C   LIG d   1      -4.773  90.030 118.753  0.00  0.00     0.028 C 
ATOM     10  C   LIG d   1      -5.423  90.484 120.071  0.00  0.00     0.006 C 
ENDBRANCH   8   9
BRANCH   8  11
ATOM     11  C   LIG d   1      -5.047  91.232 116.644  0.00  0.00     0.028 C 
ATOM     12  C   LIG d   1      -5.218  89.837 116.023  0.00  0.00     0.006 C 
ENDBRANCH   8  11
ENDBRANCH   7   8
ENDBRANCH   1   7
BRANCH   6  13
ATOM     13  N   LIG d   1       0.146  90.437 117.765  0.00  0.00    -0.311 N 
ATOM     14  C   LIG d   1       0.832  89.956 116.730  0.00  0.00     0.210 C 
ATOM     15  C   LIG d   1       1.423  88.558 116.939  0.00  0.00     0.109 C 
ATOM     16  O   LIG d   1       1.035  90.568 115.670  0.00  0.00    -0.276 OA
ATOM     17  H   LIG d   1       0.059  89.887 118.597  0.00  0.00     0.149 HD
ENDBRANCH   6  13
BRANCH   5  18
ATOM     18  N   LIG d   1       1.602  93.120 117.643  0.00  0.00     0.381 N 
ATOM     19  H   LIG d   1       2.392  92.975 118.239  0.00  0.00    -0.090 HD
ATOM     20  H   LIG d   1       1.609  94.077 117.337  0.00  0.00    -0.090 HD
ATOM     21  H   LIG d   1       1.654  92.512 116.856  0.00  0.00    -0.090 HD
ENDBRANCH   5  18
BRANCH   3  22
ATOM     22  C   LIG d   1      -2.248  95.133 119.660  0.00  0.00     0.382 C 
ATOM     23  O   LIG d   1      -1.565  96.174 119.813  0.00  0.00    -0.241 OA
ATOM     24  O   LIG d   1      -3.397  95.077 120.138  0.00  0.00    -0.241 OA
ENDBRANCH   3  22
TORSDOF 7
ENDMDL
MODEL 9
REMARK VINA RESULT:      -4.4      2.535      3.990
REMARK  7 active torsions:
REMARK  status: ('A' for Active; 'I' for Inactive)
REMARK    1  A    between atoms: C_2  and  C_3 
REMARK    2  A    between atoms: C_3  and  O_6 
REMARK    3  A    between atoms: C_3  and  C_4 
REMARK    4  A    between atoms: C_7  and  O_6 
REMARK    5  A    between atoms: C_9  and  C_10 
REMARK    6  A    between atoms: N_15  and  C_14 
REMARK    7  A    between atoms: N_20  and  C_19 
REMARK       I    between atoms: C_22  and  N_20 
ROOT
ATOM      1  C   LIG d   1      -5.284  92.784 119.593  0.00  0.00     0.161 C 
ATOM      2  C   LIG d   1      -5.180  93.538 120.773  0.00  0.00     0.016 C 
ATOM      3  C   LIG d   1      -6.239  94.316 121.296  0.00  0.00     0.038 C 
ATOM      4  C   LIG d   1      -7.530  94.272 120.750  0.00  0.00     0.028 C 
ATOM      5  C   LIG d   1      -7.549  93.919 119.266  0.00  0.00    -0.047 C 
ATOM      6  C   LIG d   1      -6.718  92.635 119.045  0.00  0.00     0.091 C 
ENDROOT
BRANCH   1   7
ATOM      7  O   LIG d   1      -4.685  91.487 119.788  0.00  0.00    -0.368 OA
BRANCH   7   8
ATOM      8  C   LIG d   1      -3.294  91.363 119.399  0.00  0.00     0.119 C 
BRANCH   8   9
ATOM      9  C   LIG d   1      -3.110  92.142 118.082  0.00  0.00     0.028 C 
ATOM     10  C   LIG d   1      -1.883  93.068 118.115  0.00  0.00     0.006 C 
ENDBRANCH   8   9
BRANCH   8  11
ATOM     11  C   LIG d   1      -2.937  89.911 119.065  0.00  0.00     0.028 C 
ATOM     12  C   LIG d   1      -3.547  88.905 120.054  0.00  0.00     0.006 C 
ENDBRANCH   8  11
ENDBRANCH   7   8
ENDBRANCH   1   7
BRANCH   6  13
ATOM     13  N   LIG d   1      -6.615  92.267 117.609  0.00  0.00    -0.311 N 
ATOM     14  C   LIG d   1      -6.517  91.010 117.179  0.00  0.00     0.210 C 
ATOM     15  C   LIG d   1      -6.401  90.853 115.660  0.00  0.00     0.109 C 
ATOM     16  O   LIG d   1      -6.548  90.008 117.910  0.00  0.00    -0.276 OA
ATOM     17  H   LIG d   1      -6.614  93.016 116.945  0.00  0.00     0.149 HD
ENDBRANCH   6  13
BRANCH   5  18
ATOM     18  N   LIG d   1      -8.960  93.773 118.861  0.00  0.00     0.381 N 
ATOM     19  H   LIG d   1      -9.014  93.272 117.997  0.00  0.00    -0.090 HD
ATOM     20  H   LIG d   1      -9.355  94.686 118.722  0.00  0.00    -0.090 HD
ATOM     21  H   LIG d   1      -9.469  93.287 119.567  0.00  0.00    -0.090 HD
ENDBRANCH   5  18
BRANCH   3  22
ATOM     22  C   LIG d   1      -6.000  95.181 122.353  0.00  0.00     0.382 C 
ATOM     23  O   LIG d   1      -4.828  95.361 122.763  0.00  0.00    -0.241 OA
ATOM     24  O   LIG d   1      -6.946  95.750 122.930  0.00  0.00    -0.241 OA
ENDBRANCH   3  22
TORSDOF 7
ENDMDL
