MODEL 1
REMARK VINA RESULT:      -5.3      0.000      0.000
REMARK  7 active torsions:
REMARK  status: ('A' for Active; 'I' for Inactive)
REMARK    1  A    between atoms: C_2  and  C_3 
REMARK    2  A    between atoms: C_3  and  O_6 
REMARK    3  A    between atoms: C_3  and  C_4 
REMARK    4  A    between atoms: C_7  and  O_6 
REMARK    5  A    between atoms: C_9  and  C_10 
REMARK    6  A    between atoms: N_15  and  C_14 
REMARK    7  A    between atoms: N_20  and  C_19 
REMARK       I    between atoms: C_22  and  N_20 
ROOT
ATOM      1  C   LIG d   1      -5.688  91.962 119.645  0.00  0.00     0.161 C 
ATOM      2  C   LIG d   1      -7.065  92.228 119.720  0.00  0.00     0.016 C 
ATOM      3  C   LIG d   1      -7.612  93.529 119.632  0.00  0.00     0.038 C 
ATOM      4  C   LIG d   1      -6.824  94.644 119.310  0.00  0.00     0.028 C 
ATOM      5  C   LIG d   1      -5.365  94.495 119.725  0.00  0.00    -0.047 C 
ATOM      6  C   LIG d   1      -4.823  93.153 119.182  0.00  0.00     0.091 C 
ENDROOT
BRANCH   1   7
ATOM      7  O   LIG d   1      -5.456  90.817 118.800  0.00  0.00    -0.368 OA
BRANCH   7   8
ATOM      8  C   LIG d   1      -5.631  91.030 117.377  0.00  0.00     0.119 C 
BRANCH   8   9
ATOM      9  C   LIG d   1      -6.922  90.302 116.955  0.00  0.00     0.028 C 
ATOM     10  C   LIG d   1      -7.027  90.129 115.431  0.00  0.00     0.006 C 
ENDBRANCH   8   9
BRANCH   8  11
ATOM     11  C   LIG d   1      -4.510  90.365 116.573  0.00  0.00     0.028 C 
ATOM     12  C   LIG d   1      -3.205  90.226 117.372  0.00  0.00     0.006 C 
ENDBRANCH   8  11
ENDBRANCH   7   8
ENDBRANCH   1   7
BRANCH   6  13
ATOM     13  N   LIG d   1      -3.426  92.890 119.615  0.00  0.00    -0.311 N 
ATOM     14  C   LIG d   1      -2.360  93.194 118.876  0.00  0.00     0.210 C 
ATOM     15  C   LIG d   1      -1.012  92.819 119.500  0.00  0.00     0.109 C 
ATOM     16  O   LIG d   1      -2.401  93.767 117.777  0.00  0.00    -0.276 OA
ATOM     17  H   LIG d   1      -3.299  92.455 120.508  0.00  0.00     0.149 HD
ENDBRANCH   6  13
BRANCH   5  18
ATOM     18  N   LIG d   1      -4.632  95.667 119.207  0.00  0.00     0.381 N 
ATOM     19  H   LIG d   1      -4.357  96.257 119.967  0.00  0.00    -0.090 HD
ATOM     20  H   LIG d   1      -5.242  96.191 118.605  0.00  0.00    -0.090 HD
ATOM     21  H   LIG d   1      -3.828  95.369 118.700  0.00  0.00    -0.090 HD
ENDBRANCH   5  18
BRANCH   3  22
ATOM     22  C   LIG d   1      -8.956  93.729 119.907  0.00  0.00     0.382 C 
ATOM     23  O   LIG d   1      -9.597  92.871 120.561  0.00  0.00    -0.241 OA
ATOM     24  O   LIG d   1      -9.547  94.736 119.473  0.00  0.00    -0.241 OA
ENDBRANCH   3  22
TORSDOF 7
ENDMDL
MODEL 2
REMARK VINA RESULT:      -5.1      1.364      2.134
REMARK  7 active torsions:
REMARK  status: ('A' for Active; 'I' for Inactive)
REMARK    1  A    between atoms: C_2  and  C_3 
REMARK    2  A    between atoms: C_3  and  O_6 
REMARK    3  A    between atoms: C_3  and  C_4 
REMARK    4  A    between atoms: C_7  and  O_6 
REMARK    5  A    between atoms: C_9  and  C_10 
REMARK    6  A    between atoms: N_15  and  C_14 
REMARK    7  A    between atoms: N_20  and  C_19 
REMARK       I    between atoms: C_22  and  N_20 
ROOT
ATOM      1  C   LIG d   1      -5.618  92.882 119.326  0.00  0.00     0.161 C 
ATOM      2  C   LIG d   1      -7.018  92.809 119.424  0.00  0.00     0.016 C 
ATOM      3  C   LIG d   1      -7.813  93.837 119.981  0.00  0.00     0.038 C 
ATOM      4  C   LIG d   1      -7.272  95.079 120.343  0.00  0.00     0.028 C 
ATOM      5  C   LIG d   1      -5.799  95.009 120.730  0.00  0.00    -0.047 C 
ATOM      6  C   LIG d   1      -5.021  94.275 119.613  0.00  0.00     0.091 C 
ENDROOT
BRANCH   1   7
ATOM      7  O   LIG d   1      -5.194  92.412 118.031  0.00  0.00    -0.368 OA
BRANCH   7   8
ATOM      8  C   LIG d   1      -5.082  90.976 117.879  0.00  0.00     0.119 C 
BRANCH   8   9
ATOM      9  C   LIG d   1      -3.794  90.533 118.600  0.00  0.00     0.028 C 
ATOM     10  C   LIG d   1      -2.535  91.195 118.013  0.00  0.00     0.006 C 
ENDBRANCH   8   9
BRANCH   8  11
ATOM     11  C   LIG d   1      -4.879  90.585 116.412  0.00  0.00     0.028 C 
ATOM     12  C   LIG d   1      -5.793  91.367 115.455  0.00  0.00     0.006 C 
ENDBRANCH   8  11
ENDBRANCH   7   8
ENDBRANCH   1   7
BRANCH   6  13
ATOM     13  N   LIG d   1      -3.586  94.089 119.951  0.00  0.00    -0.311 N 
ATOM     14  C   LIG d   1      -2.630  94.939 119.582  0.00  0.00     0.210 C 
ATOM     15  C   LIG d   1      -1.214  94.548 120.017  0.00  0.00     0.109 C 
ATOM     16  O   LIG d   1      -2.823  95.997 118.964  0.00  0.00    -0.276 OA
ATOM     17  H   LIG d   1      -3.344  93.272 120.478  0.00  0.00     0.149 HD
ENDBRANCH   6  13
BRANCH   5  18
ATOM     18  N   LIG d   1      -5.329  96.390 120.950  0.00  0.00     0.381 N 
ATOM     19  H   LIG d   1      -4.863  96.724 120.130  0.00  0.00    -0.090 HD
ATOM     20  H   LIG d   1      -4.672  96.393 121.709  0.00  0.00    -0.090 HD
ATOM     21  H   LIG d   1      -6.101  96.982 121.166  0.00  0.00    -0.090 HD
ENDBRANCH   5  18
BRANCH   3  22
ATOM     22  C   LIG d   1      -9.161  93.611 120.218  0.00  0.00     0.382 C 
ATOM     23  O   LIG d   1     -10.007  94.484 119.908  0.00  0.00    -0.241 OA
ATOM     24  O   LIG d   1      -9.537  92.563 120.777  0.00  0.00    -0.241 OA
ENDBRANCH   3  22
TORSDOF 7
ENDMDL
MODEL 3
REMARK VINA RESULT:      -5.0      2.041      4.277
REMARK  7 active torsions:
REMARK  status: ('A' for Active; 'I' for Inactive)
REMARK    1  A    between atoms: C_2  and  C_3 
REMARK    2  A    between atoms: C_3  and  O_6 
REMARK    3  A    between atoms: C_3  and  C_4 
REMARK    4  A    between atoms: C_7  and  O_6 
REMARK    5  A    between atoms: C_9  and  C_10 
REMARK    6  A    between atoms: N_15  and  C_14 
REMARK    7  A    between atoms: N_20  and  C_19 
REMARK       I    between atoms: C_22  and  N_20 
ROOT
ATOM      1  C   LIG d   1      -5.637  93.039 118.676  0.00  0.00     0.161 C 
ATOM      2  C   LIG d   1      -6.343  92.059 117.959  0.00  0.00     0.016 C 
ATOM      3  C   LIG d   1      -5.714  91.044 117.202  0.00  0.00     0.038 C 
ATOM      4  C   LIG d   1      -4.326  90.848 117.234  0.00  0.00     0.028 C 
ATOM      5  C   LIG d   1      -3.541  92.120 117.539  0.00  0.00    -0.047 C 
ATOM      6  C   LIG d   1      -4.123  92.774 118.813  0.00  0.00     0.091 C 
ENDROOT
BRANCH   1   7
ATOM      7  O   LIG d   1      -6.233  93.218 119.976  0.00  0.00    -0.368 OA
BRANCH   7   8
ATOM      8  C   LIG d   1      -6.882  92.055 120.545  0.00  0.00     0.119 C 
BRANCH   8   9
ATOM      9  C   LIG d   1      -8.170  92.537 121.242  0.00  0.00     0.028 C 
ATOM     10  C   LIG d   1      -9.065  93.369 120.309  0.00  0.00     0.006 C 
ENDBRANCH   8   9
BRANCH   8  11
ATOM     11  C   LIG d   1      -6.031  91.429 121.654  0.00  0.00     0.028 C 
ATOM     12  C   LIG d   1      -5.107  92.446 122.342  0.00  0.00     0.006 C 
ENDBRANCH   8  11
ENDBRANCH   7   8
ENDBRANCH   1   7
BRANCH   6  13
ATOM     13  N   LIG d   1      -3.467  94.069 119.135  0.00  0.00    -0.311 N 
ATOM     14  C   LIG d   1      -2.437  94.181 119.972  0.00  0.00     0.210 C 
ATOM     15  C   LIG d   1      -1.925  95.610 120.178  0.00  0.00     0.109 C 
ATOM     16  O   LIG d   1      -1.879  93.229 120.538  0.00  0.00    -0.276 OA
ATOM     17  H   LIG d   1      -3.837  94.889 118.695  0.00  0.00     0.149 HD
ENDBRANCH   6  13
BRANCH   5  18
ATOM     18  N   LIG d   1      -2.121  91.745 117.678  0.00  0.00     0.381 N 
ATOM     19  H   LIG d   1      -1.874  91.085 116.968  0.00  0.00    -0.090 HD
ATOM     20  H   LIG d   1      -1.986  91.310 118.574  0.00  0.00    -0.090 HD
ATOM     21  H   LIG d   1      -1.546  92.555 117.604  0.00  0.00    -0.090 HD
ENDBRANCH   5  18
BRANCH   3  22
ATOM     22  C   LIG d   1      -6.474  90.236 116.370  0.00  0.00     0.382 C 
ATOM     23  O   LIG d   1      -7.701  90.089 116.589  0.00  0.00    -0.241 OA
ATOM     24  O   LIG d   1      -5.941  89.618 115.430  0.00  0.00    -0.241 OA
ENDBRANCH   3  22
TORSDOF 7
ENDMDL
MODEL 4
REMARK VINA RESULT:      -5.0      2.354      4.614
REMARK  7 active torsions:
REMARK  status: ('A' for Active; 'I' for Inactive)
REMARK    1  A    between atoms: C_2  and  C_3 
REMARK    2  A    between atoms: C_3  and  O_6 
REMARK    3  A    between atoms: C_3  and  C_4 
REMARK    4  A    between atoms: C_7  and  O_6 
REMARK    5  A    between atoms: C_9  and  C_10 
REMARK    6  A    between atoms: N_15  and  C_14 
REMARK    7  A    between atoms: N_20  and  C_19 
REMARK       I    between atoms: C_22  and  N_20 
ROOT
ATOM      1  C   LIG d   1      -4.761  92.274 119.132  0.00  0.00     0.161 C 
ATOM      2  C   LIG d   1      -4.871  91.288 118.137  0.00  0.00     0.016 C 
ATOM      3  C   LIG d   1      -5.788  91.365 117.064  0.00  0.00     0.038 C 
ATOM      4  C   LIG d   1      -6.557  92.514 116.827  0.00  0.00     0.028 C 
ATOM      5  C   LIG d   1      -6.845  93.321 118.088  0.00  0.00    -0.047 C 
ATOM      6  C   LIG d   1      -5.514  93.586 118.829  0.00  0.00     0.091 C 
ENDROOT
BRANCH   1   7
ATOM      7  O   LIG d   1      -3.371  92.544 119.400  0.00  0.00    -0.368 OA
BRANCH   7   8
ATOM      8  C   LIG d   1      -2.466  92.400 118.278  0.00  0.00     0.119 C 
BRANCH   8   9
ATOM      9  C   LIG d   1      -1.325  91.463 118.721  0.00  0.00     0.028 C 
ATOM     10  C   LIG d   1      -0.159  91.443 117.718  0.00  0.00     0.006 C 
ENDBRANCH   8   9
BRANCH   8  11
ATOM     11  C   LIG d   1      -1.788  93.730 117.934  0.00  0.00     0.028 C 
ATOM     12  C   LIG d   1      -2.089  94.834 118.960  0.00  0.00     0.006 C 
ENDBRANCH   8  11
ENDBRANCH   7   8
ENDBRANCH   1   7
BRANCH   6  13
ATOM     13  N   LIG d   1      -5.714  94.298 120.118  0.00  0.00    -0.311 N 
ATOM     14  C   LIG d   1      -5.627  95.621 120.246  0.00  0.00     0.210 C 
ATOM     15  C   LIG d   1      -5.849  96.149 121.666  0.00  0.00     0.109 C 
ATOM     16  O   LIG d   1      -5.418  96.410 119.312  0.00  0.00    -0.276 OA
ATOM     17  H   LIG d   1      -5.919  93.737 120.922  0.00  0.00     0.149 HD
ENDBRANCH   6  13
BRANCH   5  18
ATOM     18  N   LIG d   1      -7.534  94.559 117.678  0.00  0.00     0.381 N 
ATOM     19  H   LIG d   1      -8.497  94.364 117.490  0.00  0.00    -0.090 HD
ATOM     20  H   LIG d   1      -7.111  94.902 116.833  0.00  0.00    -0.090 HD
ATOM     21  H   LIG d   1      -7.460  95.245 118.397  0.00  0.00    -0.090 HD
ENDBRANCH   5  18
BRANCH   3  22
ATOM     22  C   LIG d   1      -5.971  90.268 116.236  0.00  0.00     0.382 C 
ATOM     23  O   LIG d   1      -5.069  89.933 115.430  0.00  0.00    -0.241 OA
ATOM     24  O   LIG d   1      -7.043  89.635 116.254  0.00  0.00    -0.241 OA
ENDBRANCH   3  22
TORSDOF 7
ENDMDL
MODEL 5
REMARK VINA RESULT:      -4.9      3.092      5.936
REMARK  7 active torsions:
REMARK  status: ('A' for Active; 'I' for Inactive)
REMARK    1  A    between atoms: C_2  and  C_3 
REMARK    2  A    between atoms: C_3  and  O_6 
REMARK    3  A    between atoms: C_3  and  C_4 
REMARK    4  A    between atoms: C_7  and  O_6 
REMARK    5  A    between atoms: C_9  and  C_10 
REMARK    6  A    between atoms: N_15  and  C_14 
REMARK    7  A    between atoms: N_20  and  C_19 
REMARK       I    between atoms: C_22  and  N_20 
ROOT
ATOM      1  C   LIG d   1      -2.291  93.159 118.009  0.00  0.00     0.161 C 
ATOM      2  C   LIG d   1      -1.131  92.375 117.898  0.00  0.00     0.016 C 
ATOM      3  C   LIG d   1       0.063  92.648 118.603  0.00  0.00     0.038 C 
ATOM      4  C   LIG d   1       0.131  93.644 119.589  0.00  0.00     0.028 C 
ATOM      5  C   LIG d   1      -0.862  94.781 119.371  0.00  0.00    -0.047 C 
ATOM      6  C   LIG d   1      -2.272  94.183 119.163  0.00  0.00     0.091 C 
ENDROOT
BRANCH   1   7
ATOM      7  O   LIG d   1      -3.449  92.307 118.115  0.00  0.00    -0.368 OA
BRANCH   7   8
ATOM      8  C   LIG d   1      -3.189  90.882 118.159  0.00  0.00     0.119 C 
BRANCH   8   9
ATOM      9  C   LIG d   1      -3.938  90.239 116.975  0.00  0.00     0.028 C 
ATOM     10  C   LIG d   1      -5.034  91.155 116.406  0.00  0.00     0.006 C 
ENDBRANCH   8   9
BRANCH   8  11
ATOM     11  C   LIG d   1      -3.792  90.245 119.414  0.00  0.00     0.028 C 
ATOM     12  C   LIG d   1      -3.034  90.624 120.697  0.00  0.00     0.006 C 
ENDBRANCH   8  11
ENDBRANCH   7   8
ENDBRANCH   1   7
BRANCH   6  13
ATOM     13  N   LIG d   1      -3.289  95.223 118.859  0.00  0.00    -0.311 N 
ATOM     14  C   LIG d   1      -4.043  95.805 119.790  0.00  0.00     0.210 C 
ATOM     15  C   LIG d   1      -5.044  96.837 119.260  0.00  0.00     0.109 C 
ATOM     16  O   LIG d   1      -3.956  95.589 121.008  0.00  0.00    -0.276 OA
ATOM     17  H   LIG d   1      -3.404  95.482 117.899  0.00  0.00     0.149 HD
ENDBRANCH   6  13
BRANCH   5  18
ATOM     18  N   LIG d   1      -0.779  95.675 120.541  0.00  0.00     0.381 N 
ATOM     19  H   LIG d   1      -0.077  96.370 120.388  0.00  0.00    -0.090 HD
ATOM     20  H   LIG d   1      -0.516  95.134 121.346  0.00  0.00    -0.090 HD
ATOM     21  H   LIG d   1      -1.661  96.112 120.699  0.00  0.00    -0.090 HD
ENDBRANCH   5  18
BRANCH   3  22
ATOM     22  C   LIG d   1       1.219  91.947 118.295  0.00  0.00     0.382 C 
ATOM     23  O   LIG d   1       1.262  90.704 118.464  0.00  0.00    -0.241 OA
ATOM     24  O   LIG d   1       2.234  92.547 117.893  0.00  0.00    -0.241 OA
ENDBRANCH   3  22
TORSDOF 7
ENDMDL
MODEL 6
REMARK VINA RESULT:      -4.9      1.984      2.363
REMARK  7 active torsions:
REMARK  status: ('A' for Active; 'I' for Inactive)
REMARK    1  A    between atoms: C_2  and  C_3 
REMARK    2  A    between atoms: C_3  and  O_6 
REMARK    3  A    between atoms: C_3  and  C_4 
REMARK    4  A    between atoms: C_7  and  O_6 
REMARK    5  A    between atoms: C_9  and  C_10 
REMARK    6  A    between atoms: N_15  and  C_14 
REMARK    7  A    between atoms: N_20  and  C_19 
REMARK       I    between atoms: C_22  and  N_20 
ROOT
ATOM      1  C   LIG d   1      -6.291  91.858 119.160  0.00  0.00     0.161 C 
ATOM      2  C   LIG d   1      -6.980  92.868 118.468  0.00  0.00     0.016 C 
ATOM      3  C   LIG d   1      -6.767  94.248 118.690  0.00  0.00     0.038 C 
ATOM      4  C   LIG d   1      -5.735  94.716 119.517  0.00  0.00     0.028 C 
ATOM      5  C   LIG d   1      -5.350  93.734 120.619  0.00  0.00    -0.047 C 
ATOM      6  C   LIG d   1      -5.083  92.349 119.985  0.00  0.00     0.091 C 
ENDROOT
BRANCH   1   7
ATOM      7  O   LIG d   1      -5.883  90.827 118.240  0.00  0.00    -0.368 OA
BRANCH   7   8
ATOM      8  C   LIG d   1      -4.875  91.201 117.269  0.00  0.00     0.119 C 
BRANCH   8   9
ATOM      9  C   LIG d   1      -5.460  90.935 115.868  0.00  0.00     0.028 C 
ATOM     10  C   LIG d   1      -6.774  90.138 115.923  0.00  0.00     0.006 C 
ENDBRANCH   8   9
BRANCH   8  11
ATOM     11  C   LIG d   1      -3.641  90.299 117.370  0.00  0.00     0.028 C 
ATOM     12  C   LIG d   1      -2.377  91.065 117.792  0.00  0.00     0.006 C 
ENDBRANCH   8  11
ENDBRANCH   7   8
ENDBRANCH   1   7
BRANCH   6  13
ATOM     13  N   LIG d   1      -4.782  91.309 121.003  0.00  0.00    -0.311 N 
ATOM     14  C   LIG d   1      -3.552  91.051 121.447  0.00  0.00     0.210 C 
ATOM     15  C   LIG d   1      -3.461  89.925 122.482  0.00  0.00     0.109 C 
ATOM     16  O   LIG d   1      -2.533  91.670 121.105  0.00  0.00    -0.276 OA
ATOM     17  H   LIG d   1      -5.555  90.780 121.358  0.00  0.00     0.149 HD
ENDBRANCH   6  13
BRANCH   5  18
ATOM     18  N   LIG d   1      -4.174  94.286 121.317  0.00  0.00     0.381 N 
ATOM     19  H   LIG d   1      -4.171  93.980 122.270  0.00  0.00    -0.090 HD
ATOM     20  H   LIG d   1      -4.233  95.289 121.309  0.00  0.00    -0.090 HD
ATOM     21  H   LIG d   1      -3.338  93.992 120.863  0.00  0.00    -0.090 HD
ENDBRANCH   5  18
BRANCH   3  22
ATOM     22  C   LIG d   1      -7.619  95.177 118.111  0.00  0.00     0.382 C 
ATOM     23  O   LIG d   1      -8.568  94.791 117.386  0.00  0.00    -0.241 OA
ATOM     24  O   LIG d   1      -7.424  96.397 118.268  0.00  0.00    -0.241 OA
ENDBRANCH   3  22
TORSDOF 7
ENDMDL
MODEL 7
REMARK VINA RESULT:      -4.9      2.072      4.641
REMARK  7 active torsions:
REMARK  status: ('A' for Active; 'I' for Inactive)
REMARK    1  A    between atoms: C_2  and  C_3 
REMARK    2  A    between atoms: C_3  and  O_6 
REMARK    3  A    between atoms: C_3  and  C_4 
REMARK    4  A    between atoms: C_7  and  O_6 
REMARK    5  A    between atoms: C_9  and  C_10 
REMARK    6  A    between atoms: N_15  and  C_14 
REMARK    7  A    between atoms: N_20  and  C_19 
REMARK       I    between atoms: C_22  and  N_20 
ROOT
ATOM      1  C   LIG d   1      -5.764  93.105 118.558  0.00  0.00     0.161 C 
ATOM      2  C   LIG d   1      -6.392  92.087 117.821  0.00  0.00     0.016 C 
ATOM      3  C   LIG d   1      -5.685  91.067 117.143  0.00  0.00     0.038 C 
ATOM      4  C   LIG d   1      -4.298  90.908 117.284  0.00  0.00     0.028 C 
ATOM      5  C   LIG d   1      -3.569  92.207 117.608  0.00  0.00    -0.047 C 
ATOM      6  C   LIG d   1      -4.259  92.883 118.815  0.00  0.00     0.091 C 
ENDROOT
BRANCH   1   7
ATOM      7  O   LIG d   1      -6.461  93.305 119.804  0.00  0.00    -0.368 OA
BRANCH   7   8
ATOM      8  C   LIG d   1      -7.007  94.629 120.023  0.00  0.00     0.119 C 
BRANCH   8   9
ATOM      9  C   LIG d   1      -8.476  94.458 120.457  0.00  0.00     0.028 C 
ATOM     10  C   LIG d   1      -8.911  92.983 120.486  0.00  0.00     0.006 C 
ENDBRANCH   8   9
BRANCH   8  11
ATOM     11  C   LIG d   1      -7.061  95.432 118.719  0.00  0.00     0.028 C 
ATOM     12  C   LIG d   1      -8.496  95.787 118.297  0.00  0.00     0.006 C 
ENDBRANCH   8  11
ENDBRANCH   7   8
ENDBRANCH   1   7
BRANCH   6  13
ATOM     13  N   LIG d   1      -3.660  94.202 119.145  0.00  0.00    -0.311 N 
ATOM     14  C   LIG d   1      -3.200  94.516 120.355  0.00  0.00     0.210 C 
ATOM     15  C   LIG d   1      -2.641  95.937 120.485  0.00  0.00     0.109 C 
ATOM     16  O   LIG d   1      -3.173  93.743 121.324  0.00  0.00    -0.276 OA
ATOM     17  H   LIG d   1      -3.614  94.879 118.409  0.00  0.00     0.149 HD
ENDBRANCH   6  13
BRANCH   5  18
ATOM     18  N   LIG d   1      -2.155  91.873 117.863  0.00  0.00     0.381 N 
ATOM     19  H   LIG d   1      -2.076  90.910 118.120  0.00  0.00    -0.090 HD
ATOM     20  H   LIG d   1      -1.822  92.432 118.628  0.00  0.00    -0.090 HD
ATOM     21  H   LIG d   1      -1.610  92.053 117.049  0.00  0.00    -0.090 HD
ENDBRANCH   5  18
BRANCH   3  22
ATOM     22  C   LIG d   1      -6.362  90.217 116.282  0.00  0.00     0.382 C 
ATOM     23  O   LIG d   1      -7.604  90.077 116.387  0.00  0.00    -0.241 OA
ATOM     24  O   LIG d   1      -5.740  89.555 115.430  0.00  0.00    -0.241 OA
ENDBRANCH   3  22
TORSDOF 7
ENDMDL
MODEL 8
REMARK VINA RESULT:      -4.7      2.516      3.894
REMARK  7 active torsions:
REMARK  status: ('A' for Active; 'I' for Inactive)
REMARK    1  A    between atoms: C_2  and  C_3 
REMARK    2  A    between atoms: C_3  and  O_6 
REMARK    3  A    between atoms: C_3  and  C_4 
REMARK    4  A    between atoms: C_7  and  O_6 
REMARK    5  A    between atoms: C_9  and  C_10 
REMARK    6  A    between atoms: N_15  and  C_14 
REMARK    7  A    between atoms: N_20  and  C_19 
REMARK       I    between atoms: C_22  and  N_20 
ROOT
ATOM      1  C   LIG d   1      -5.492  93.139 119.481  0.00  0.00     0.161 C 
ATOM      2  C   LIG d   1      -5.638  94.018 120.568  0.00  0.00     0.016 C 
ATOM      3  C   LIG d   1      -6.592  95.060 120.602  0.00  0.00     0.038 C 
ATOM      4  C   LIG d   1      -7.573  95.201 119.609  0.00  0.00     0.028 C 
ATOM      5  C   LIG d   1      -7.145  94.652 118.253  0.00  0.00    -0.047 C 
ATOM      6  C   LIG d   1      -6.626  93.207 118.437  0.00  0.00     0.091 C 
ENDROOT
BRANCH   1   7
ATOM      7  O   LIG d   1      -5.334  91.789 119.962  0.00  0.00    -0.368 OA
BRANCH   7   8
ATOM      8  C   LIG d   1      -3.974  91.354 120.204  0.00  0.00     0.119 C 
BRANCH   8   9
ATOM      9  C   LIG d   1      -3.607  90.346 119.097  0.00  0.00     0.028 C 
ATOM     10  C   LIG d   1      -2.735  90.975 117.996  0.00  0.00     0.006 C 
ENDBRANCH   8   9
BRANCH   8  11
ATOM     11  C   LIG d   1      -3.863  90.572 121.516  0.00  0.00     0.028 C 
ATOM     12  C   LIG d   1      -2.408  90.282 121.916  0.00  0.00     0.006 C 
ENDBRANCH   8  11
ENDBRANCH   7   8
ENDBRANCH   1   7
BRANCH   6  13
ATOM     13  N   LIG d   1      -6.108  92.625 117.172  0.00  0.00    -0.311 N 
ATOM     14  C   LIG d   1      -6.269  91.347 116.833  0.00  0.00     0.210 C 
ATOM     15  C   LIG d   1      -5.639  90.949 115.495  0.00  0.00     0.109 C 
ATOM     16  O   LIG d   1      -6.901  90.513 117.499  0.00  0.00    -0.276 OA
ATOM     17  H   LIG d   1      -5.610  93.239 116.558  0.00  0.00     0.149 HD
ENDBRANCH   6  13
BRANCH   5  18
ATOM     18  N   LIG d   1      -8.308  94.738 117.350  0.00  0.00     0.381 N 
ATOM     19  H   LIG d   1      -8.051  94.422 116.436  0.00  0.00    -0.090 HD
ATOM     20  H   LIG d   1      -8.597  95.698 117.282  0.00  0.00    -0.090 HD
ATOM     21  H   LIG d   1      -9.055  94.182 117.703  0.00  0.00    -0.090 HD
ENDBRANCH   5  18
BRANCH   3  22
ATOM     22  C   LIG d   1      -6.546  96.001 121.620  0.00  0.00     0.382 C 
ATOM     23  O   LIG d   1      -6.948  95.700 122.770  0.00  0.00    -0.241 OA
ATOM     24  O   LIG d   1      -6.149  97.159 121.392  0.00  0.00    -0.241 OA
ENDBRANCH   3  22
TORSDOF 7
ENDMDL
MODEL 9
REMARK VINA RESULT:      -4.3      2.441      4.649
REMARK  7 active torsions:
REMARK  status: ('A' for Active; 'I' for Inactive)
REMARK    1  A    between atoms: C_2  and  C_3 
REMARK    2  A    between atoms: C_3  and  O_6 
REMARK    3  A    between atoms: C_3  and  C_4 
REMARK    4  A    between atoms: C_7  and  O_6 
REMARK    5  A    between atoms: C_9  and  C_10 
REMARK    6  A    between atoms: N_15  and  C_14 
REMARK    7  A    between atoms: N_20  and  C_19 
REMARK       I    between atoms: C_22  and  N_20 
ROOT
ATOM      1  C   LIG d   1      -3.798  93.211 118.683  0.00  0.00     0.161 C 
ATOM      2  C   LIG d   1      -3.619  94.170 119.694  0.00  0.00     0.016 C 
ATOM      3  C   LIG d   1      -4.691  94.828 120.340  0.00  0.00     0.038 C 
ATOM      4  C   LIG d   1      -6.027  94.459 120.123  0.00  0.00     0.028 C 
ATOM      5  C   LIG d   1      -6.271  93.850 118.747  0.00  0.00    -0.047 C 
ATOM      6  C   LIG d   1      -5.249  92.714 118.512  0.00  0.00     0.091 C 
ENDROOT
BRANCH   1   7
ATOM      7  O   LIG d   1      -2.910  92.097 118.905  0.00  0.00    -0.368 OA
BRANCH   7   8
ATOM      8  C   LIG d   1      -2.154  92.120 120.140  0.00  0.00     0.119 C 
BRANCH   8   9
ATOM      9  C   LIG d   1      -0.698  91.749 119.799  0.00  0.00     0.028 C 
ATOM     10  C   LIG d   1      -0.479  91.561 118.288  0.00  0.00     0.006 C 
ENDBRANCH   8   9
BRANCH   8  11
ATOM     11  C   LIG d   1      -2.633  91.034 121.108  0.00  0.00     0.028 C 
ATOM     12  C   LIG d   1      -3.701  90.116 120.492  0.00  0.00     0.006 C 
ENDBRANCH   8  11
ENDBRANCH   7   8
ENDBRANCH   1   7
BRANCH   6  13
ATOM     13  N   LIG d   1      -5.363  92.120 117.154  0.00  0.00    -0.311 N 
ATOM     14  C   LIG d   1      -6.061  91.017 116.894  0.00  0.00     0.210 C 
ATOM     15  C   LIG d   1      -6.032  90.563 115.431  0.00  0.00     0.109 C 
ATOM     16  O   LIG d   1      -6.728  90.388 117.729  0.00  0.00    -0.276 OA
ATOM     17  H   LIG d   1      -4.878  92.584 116.411  0.00  0.00     0.149 HD
ENDBRANCH   6  13
BRANCH   5  18
ATOM     18  N   LIG d   1      -7.670  93.385 118.707  0.00  0.00     0.381 N 
ATOM     19  H   LIG d   1      -7.698  92.416 118.462  0.00  0.00    -0.090 HD
ATOM     20  H   LIG d   1      -8.165  93.903 118.002  0.00  0.00    -0.090 HD
ATOM     21  H   LIG d   1      -8.101  93.523 119.595  0.00  0.00    -0.090 HD
ENDBRANCH   5  18
BRANCH   3  22
ATOM     22  C   LIG d   1      -4.432  95.896 121.186  0.00  0.00     0.382 C 
ATOM     23  O   LIG d   1      -3.255  96.302 121.340  0.00  0.00    -0.241 OA
ATOM     24  O   LIG d   1      -5.354  96.430 121.830  0.00  0.00    -0.241 OA
ENDBRANCH   3  22
TORSDOF 7
ENDMDL
