MODEL 1
REMARK VINA RESULT:      -5.4      0.000      0.000
REMARK  7 active torsions:
REMARK  status: ('A' for Active; 'I' for Inactive)
REMARK    1  A    between atoms: C_2  and  C_3 
REMARK    2  A    between atoms: C_3  and  O_6 
REMARK    3  A    between atoms: C_3  and  C_4 
REMARK    4  A    between atoms: C_7  and  O_6 
REMARK    5  A    between atoms: C_9  and  C_10 
REMARK    6  A    between atoms: N_15  and  C_14 
REMARK    7  A    between atoms: N_20  and  C_19 
REMARK       I    between atoms: C_22  and  N_20 
ROOT
ATOM      1  C   LIG d   1      -5.129  91.342 119.199  0.00  0.00     0.161 C 
ATOM      2  C   LIG d   1      -5.487  90.399 118.221  0.00  0.00     0.016 C 
ATOM      3  C   LIG d   1      -6.364  90.683 117.149  0.00  0.00     0.038 C 
ATOM      4  C   LIG d   1      -6.826  91.983 116.894  0.00  0.00     0.028 C 
ATOM      5  C   LIG d   1      -6.895  92.857 118.142  0.00  0.00    -0.047 C 
ATOM      6  C   LIG d   1      -5.535  92.795 118.874  0.00  0.00     0.091 C 
ENDROOT
BRANCH   1   7
ATOM      7  O   LIG d   1      -3.713  91.264 119.458  0.00  0.00    -0.368 OA
BRANCH   7   8
ATOM      8  C   LIG d   1      -2.893  90.768 118.371  0.00  0.00     0.119 C 
BRANCH   8   9
ATOM      9  C   LIG d   1      -1.879  89.776 118.972  0.00  0.00     0.028 C 
ATOM     10  C   LIG d   1      -2.495  88.390 119.228  0.00  0.00     0.006 C 
ENDBRANCH   8   9
BRANCH   8  11
ATOM     11  C   LIG d   1      -2.048  91.888 117.755  0.00  0.00     0.028 C 
ATOM     12  C   LIG d   1      -1.903  93.104 118.683  0.00  0.00     0.006 C 
ENDBRANCH   8  11
ENDBRANCH   7   8
ENDBRANCH   1   7
BRANCH   6  13
ATOM     13  N   LIG d   1      -5.543  93.556 120.151  0.00  0.00    -0.311 N 
ATOM     14  C   LIG d   1      -5.116  94.813 120.258  0.00  0.00     0.210 C 
ATOM     15  C   LIG d   1      -5.193  95.403 121.670  0.00  0.00     0.109 C 
ATOM     16  O   LIG d   1      -4.711  95.505 119.313  0.00  0.00    -0.276 OA
ATOM     17  H   LIG d   1      -5.885  93.080 120.963  0.00  0.00     0.149 HD
ENDBRANCH   6  13
BRANCH   5  18
ATOM     18  N   LIG d   1      -7.259  94.220 117.712  0.00  0.00     0.381 N 
ATOM     19  H   LIG d   1      -7.510  94.771 118.508  0.00  0.00    -0.090 HD
ATOM     20  H   LIG d   1      -8.055  94.167 117.101  0.00  0.00    -0.090 HD
ATOM     21  H   LIG d   1      -6.493  94.643 117.235  0.00  0.00    -0.090 HD
ENDBRANCH   5  18
BRANCH   3  22
ATOM     22  C   LIG d   1      -6.819  89.652 116.341  0.00  0.00     0.382 C 
ATOM     23  O   LIG d   1      -8.051  89.454 116.213  0.00  0.00    -0.241 OA
ATOM     24  O   LIG d   1      -6.012  88.891 115.775  0.00  0.00    -0.241 OA
ENDBRANCH   3  22
TORSDOF 7
ENDMDL
MODEL 2
REMARK VINA RESULT:      -5.0      2.181      4.554
REMARK  7 active torsions:
REMARK  status: ('A' for Active; 'I' for Inactive)
REMARK    1  A    between atoms: C_2  and  C_3 
REMARK    2  A    between atoms: C_3  and  O_6 
REMARK    3  A    between atoms: C_3  and  C_4 
REMARK    4  A    between atoms: C_7  and  O_6 
REMARK    5  A    between atoms: C_9  and  C_10 
REMARK    6  A    between atoms: N_15  and  C_14 
REMARK    7  A    between atoms: N_20  and  C_19 
REMARK       I    between atoms: C_22  and  N_20 
ROOT
ATOM      1  C   LIG d   1      -6.172  93.009 118.310  0.00  0.00     0.161 C 
ATOM      2  C   LIG d   1      -6.830  92.020 117.560  0.00  0.00     0.016 C 
ATOM      3  C   LIG d   1      -6.241  90.780 117.221  0.00  0.00     0.038 C 
ATOM      4  C   LIG d   1      -5.001  90.381 117.741  0.00  0.00     0.028 C 
ATOM      5  C   LIG d   1      -4.086  91.550 118.088  0.00  0.00    -0.047 C 
ATOM      6  C   LIG d   1      -4.861  92.547 118.980  0.00  0.00     0.091 C 
ENDROOT
BRANCH   1   7
ATOM      7  O   LIG d   1      -7.072  93.555 119.294  0.00  0.00    -0.368 OA
BRANCH   7   8
ATOM      8  C   LIG d   1      -8.334  94.061 118.792  0.00  0.00     0.119 C 
BRANCH   8   9
ATOM      9  C   LIG d   1      -8.125  95.542 118.422  0.00  0.00     0.028 C 
ATOM     10  C   LIG d   1      -7.341  96.311 119.499  0.00  0.00     0.006 C 
ENDBRANCH   8   9
BRANCH   8  11
ATOM     11  C   LIG d   1      -9.407  94.063 119.885  0.00  0.00     0.028 C 
ATOM     12  C   LIG d   1      -8.993  93.261 121.128  0.00  0.00     0.006 C 
ENDBRANCH   8  11
ENDBRANCH   7   8
ENDBRANCH   1   7
BRANCH   6  13
ATOM     13  N   LIG d   1      -4.066  93.762 119.296  0.00  0.00    -0.311 N 
ATOM     14  C   LIG d   1      -3.762  94.137 120.538  0.00  0.00     0.210 C 
ATOM     15  C   LIG d   1      -2.951  95.432 120.642  0.00  0.00     0.109 C 
ATOM     16  O   LIG d   1      -4.061  93.503 121.561  0.00  0.00    -0.276 OA
ATOM     17  H   LIG d   1      -3.756  94.318 118.524  0.00  0.00     0.149 HD
ENDBRANCH   6  13
BRANCH   5  18
ATOM     18  N   LIG d   1      -2.887  90.997 118.746  0.00  0.00     0.381 N 
ATOM     19  H   LIG d   1      -2.459  91.700 119.316  0.00  0.00    -0.090 HD
ATOM     20  H   LIG d   1      -2.228  90.719 118.041  0.00  0.00    -0.090 HD
ATOM     21  H   LIG d   1      -3.137  90.212 119.306  0.00  0.00    -0.090 HD
ENDBRANCH   5  18
BRANCH   3  22
ATOM     22  C   LIG d   1      -6.878  89.940 116.319  0.00  0.00     0.382 C 
ATOM     23  O   LIG d   1      -7.957  90.295 115.787  0.00  0.00    -0.241 OA
ATOM     24  O   LIG d   1      -6.410  88.814 116.066  0.00  0.00    -0.241 OA
ENDBRANCH   3  22
TORSDOF 7
ENDMDL
MODEL 3
REMARK VINA RESULT:      -5.0      1.076      1.884
REMARK  7 active torsions:
REMARK  status: ('A' for Active; 'I' for Inactive)
REMARK    1  A    between atoms: C_2  and  C_3 
REMARK    2  A    between atoms: C_3  and  O_6 
REMARK    3  A    between atoms: C_3  and  C_4 
REMARK    4  A    between atoms: C_7  and  O_6 
REMARK    5  A    between atoms: C_9  and  C_10 
REMARK    6  A    between atoms: N_15  and  C_14 
REMARK    7  A    between atoms: N_20  and  C_19 
REMARK       I    between atoms: C_22  and  N_20 
ROOT
ATOM      1  C   LIG d   1      -4.711  91.085 118.911  0.00  0.00     0.161 C 
ATOM      2  C   LIG d   1      -5.244  90.282 117.889  0.00  0.00     0.016 C 
ATOM      3  C   LIG d   1      -6.263  90.716 117.011  0.00  0.00     0.038 C 
ATOM      4  C   LIG d   1      -6.716  92.043 116.998  0.00  0.00     0.028 C 
ATOM      5  C   LIG d   1      -6.566  92.747 118.342  0.00  0.00    -0.047 C 
ATOM      6  C   LIG d   1      -5.114  92.573 118.841  0.00  0.00     0.091 C 
ENDROOT
BRANCH   1   7
ATOM      7  O   LIG d   1      -3.276  90.955 118.936  0.00  0.00    -0.368 OA
BRANCH   7   8
ATOM      8  C   LIG d   1      -2.729  90.123 119.989  0.00  0.00     0.119 C 
BRANCH   8   9
ATOM      9  C   LIG d   1      -1.945  91.043 120.945  0.00  0.00     0.028 C 
ATOM     10  C   LIG d   1      -1.185  92.153 120.201  0.00  0.00     0.006 C 
ENDBRANCH   8   9
BRANCH   8  11
ATOM     11  C   LIG d   1      -1.696  89.135 119.439  0.00  0.00     0.028 C 
ATOM     12  C   LIG d   1      -1.879  88.857 117.938  0.00  0.00     0.006 C 
ENDBRANCH   8  11
ENDBRANCH   7   8
ENDBRANCH   1   7
BRANCH   6  13
ATOM     13  N   LIG d   1      -4.903  93.160 120.190  0.00  0.00    -0.311 N 
ATOM     14  C   LIG d   1      -4.163  94.245 120.411  0.00  0.00     0.210 C 
ATOM     15  C   LIG d   1      -4.060  94.671 121.878  0.00  0.00     0.109 C 
ATOM     16  O   LIG d   1      -3.607  94.914 119.526  0.00  0.00    -0.276 OA
ATOM     17  H   LIG d   1      -5.344  92.699 120.962  0.00  0.00     0.149 HD
ENDBRANCH   6  13
BRANCH   5  18
ATOM     18  N   LIG d   1      -6.946  94.160 118.151  0.00  0.00     0.381 N 
ATOM     19  H   LIG d   1      -7.078  94.599 119.040  0.00  0.00    -0.090 HD
ATOM     20  H   LIG d   1      -7.816  94.197 117.648  0.00  0.00    -0.090 HD
ATOM     21  H   LIG d   1      -6.238  94.637 117.639  0.00  0.00    -0.090 HD
ENDBRANCH   5  18
BRANCH   3  22
ATOM     22  C   LIG d   1      -6.869  89.805 116.158  0.00  0.00     0.382 C 
ATOM     23  O   LIG d   1      -6.221  88.820 115.731  0.00  0.00    -0.241 OA
ATOM     24  O   LIG d   1      -8.042  89.980 115.777  0.00  0.00    -0.241 OA
ENDBRANCH   3  22
TORSDOF 7
ENDMDL
MODEL 4
REMARK VINA RESULT:      -4.9      2.530      4.475
REMARK  7 active torsions:
REMARK  status: ('A' for Active; 'I' for Inactive)
REMARK    1  A    between atoms: C_2  and  C_3 
REMARK    2  A    between atoms: C_3  and  O_6 
REMARK    3  A    between atoms: C_3  and  C_4 
REMARK    4  A    between atoms: C_7  and  O_6 
REMARK    5  A    between atoms: C_9  and  C_10 
REMARK    6  A    between atoms: N_15  and  C_14 
REMARK    7  A    between atoms: N_20  and  C_19 
REMARK       I    between atoms: C_22  and  N_20 
ROOT
ATOM      1  C   LIG d   1      -4.456  92.243 118.940  0.00  0.00     0.161 C 
ATOM      2  C   LIG d   1      -5.572  93.091 119.032  0.00  0.00     0.016 C 
ATOM      3  C   LIG d   1      -6.727  92.948 118.228  0.00  0.00     0.038 C 
ATOM      4  C   LIG d   1      -6.907  91.847 117.378  0.00  0.00     0.028 C 
ATOM      5  C   LIG d   1      -5.596  91.244 116.883  0.00  0.00    -0.047 C 
ATOM      6  C   LIG d   1      -4.679  90.970 118.097  0.00  0.00     0.091 C 
ENDROOT
BRANCH   1   7
ATOM      7  O   LIG d   1      -3.998  91.894 120.261  0.00  0.00    -0.368 OA
BRANCH   7   8
ATOM      8  C   LIG d   1      -2.736  92.477 120.672  0.00  0.00     0.119 C 
BRANCH   8   9
ATOM      9  C   LIG d   1      -2.140  93.199 119.449  0.00  0.00     0.028 C 
ATOM     10  C   LIG d   1      -0.746  92.668 119.075  0.00  0.00     0.006 C 
ENDBRANCH   8   9
BRANCH   8  11
ATOM     11  C   LIG d   1      -1.717  91.395 121.041  0.00  0.00     0.028 C 
ATOM     12  C   LIG d   1      -2.350  90.208 121.785  0.00  0.00     0.006 C 
ENDBRANCH   8  11
ENDBRANCH   7   8
ENDBRANCH   1   7
BRANCH   6  13
ATOM     13  N   LIG d   1      -3.344  90.458 117.694  0.00  0.00    -0.311 N 
ATOM     14  C   LIG d   1      -2.833  89.311 118.140  0.00  0.00     0.210 C 
ATOM     15  C   LIG d   1      -1.433  88.979 117.615  0.00  0.00     0.109 C 
ATOM     16  O   LIG d   1      -3.420  88.522 118.896  0.00  0.00    -0.276 OA
ATOM     17  H   LIG d   1      -2.812  91.020 117.059  0.00  0.00     0.149 HD
ENDBRANCH   6  13
BRANCH   5  18
ATOM     18  N   LIG d   1      -5.927  90.025 116.121  0.00  0.00     0.381 N 
ATOM     19  H   LIG d   1      -5.085  89.554 115.854  0.00  0.00    -0.090 HD
ATOM     20  H   LIG d   1      -6.420  90.287 115.285  0.00  0.00    -0.090 HD
ATOM     21  H   LIG d   1      -6.493  89.420 116.674  0.00  0.00    -0.090 HD
ENDBRANCH   5  18
BRANCH   3  22
ATOM     22  C   LIG d   1      -7.700  93.935 118.242  0.00  0.00     0.382 C 
ATOM     23  O   LIG d   1      -7.375  95.139 118.103  0.00  0.00    -0.241 OA
ATOM     24  O   LIG d   1      -8.895  93.642 118.436  0.00  0.00    -0.241 OA
ENDBRANCH   3  22
TORSDOF 7
ENDMDL
MODEL 5
REMARK VINA RESULT:      -4.9      2.284      4.290
REMARK  7 active torsions:
REMARK  status: ('A' for Active; 'I' for Inactive)
REMARK    1  A    between atoms: C_2  and  C_3 
REMARK    2  A    between atoms: C_3  and  O_6 
REMARK    3  A    between atoms: C_3  and  C_4 
REMARK    4  A    between atoms: C_7  and  O_6 
REMARK    5  A    between atoms: C_9  and  C_10 
REMARK    6  A    between atoms: N_15  and  C_14 
REMARK    7  A    between atoms: N_20  and  C_19 
REMARK       I    between atoms: C_22  and  N_20 
ROOT
ATOM      1  C   LIG d   1      -5.958  92.541 118.954  0.00  0.00     0.161 C 
ATOM      2  C   LIG d   1      -6.597  91.604 118.125  0.00  0.00     0.016 C 
ATOM      3  C   LIG d   1      -5.918  90.544 117.482  0.00  0.00     0.038 C 
ATOM      4  C   LIG d   1      -4.571  90.258 117.746  0.00  0.00     0.028 C 
ATOM      5  C   LIG d   1      -3.766  91.478 118.182  0.00  0.00    -0.047 C 
ATOM      6  C   LIG d   1      -4.509  92.179 119.342  0.00  0.00     0.091 C 
ENDROOT
BRANCH   1   7
ATOM      7  O   LIG d   1      -6.751  92.770 120.135  0.00  0.00    -0.368 OA
BRANCH   7   8
ATOM      8  C   LIG d   1      -7.401  94.062 120.227  0.00  0.00     0.119 C 
BRANCH   8   9
ATOM      9  C   LIG d   1      -8.915  93.831 120.051  0.00  0.00     0.028 C 
ATOM     10  C   LIG d   1      -9.530  93.051 121.225  0.00  0.00     0.006 C 
ENDBRANCH   8   9
BRANCH   8  11
ATOM     11  C   LIG d   1      -6.993  94.974 119.066  0.00  0.00     0.028 C 
ATOM     12  C   LIG d   1      -8.181  95.379 118.180  0.00  0.00     0.006 C 
ENDBRANCH   8  11
ENDBRANCH   7   8
ENDBRANCH   1   7
BRANCH   6  13
ATOM     13  N   LIG d   1      -3.833  93.431 119.773  0.00  0.00    -0.311 N 
ATOM     14  C   LIG d   1      -2.955  93.482 120.773  0.00  0.00     0.210 C 
ATOM     15  C   LIG d   1      -2.391  94.876 121.067  0.00  0.00     0.109 C 
ATOM     16  O   LIG d   1      -2.565  92.501 121.424  0.00  0.00    -0.276 OA
ATOM     17  H   LIG d   1      -4.067  94.269 119.279  0.00  0.00     0.149 HD
ENDBRANCH   6  13
BRANCH   5  18
ATOM     18  N   LIG d   1      -2.418  91.012 118.557  0.00  0.00     0.381 N 
ATOM     19  H   LIG d   1      -2.393  90.012 118.557  0.00  0.00    -0.090 HD
ATOM     20  H   LIG d   1      -2.209  91.333 119.486  0.00  0.00    -0.090 HD
ATOM     21  H   LIG d   1      -1.744  91.368 117.915  0.00  0.00    -0.090 HD
ENDBRANCH   5  18
BRANCH   3  22
ATOM     22  C   LIG d   1      -6.580  89.781 116.531  0.00  0.00     0.382 C 
ATOM     23  O   LIG d   1      -7.807  89.952 116.334  0.00  0.00    -0.241 OA
ATOM     24  O   LIG d   1      -5.974  88.894 115.901  0.00  0.00    -0.241 OA
ENDBRANCH   3  22
TORSDOF 7
ENDMDL
MODEL 6
REMARK VINA RESULT:      -4.8      2.278      4.104
REMARK  7 active torsions:
REMARK  status: ('A' for Active; 'I' for Inactive)
REMARK    1  A    between atoms: C_2  and  C_3 
REMARK    2  A    between atoms: C_3  and  O_6 
REMARK    3  A    between atoms: C_3  and  C_4 
REMARK    4  A    between atoms: C_7  and  O_6 
REMARK    5  A    between atoms: C_9  and  C_10 
REMARK    6  A    between atoms: N_15  and  C_14 
REMARK    7  A    between atoms: N_20  and  C_19 
REMARK       I    between atoms: C_22  and  N_20 
ROOT
ATOM      1  C   LIG d   1      -5.656  92.295 119.863  0.00  0.00     0.161 C 
ATOM      2  C   LIG d   1      -6.913  92.771 119.456  0.00  0.00     0.016 C 
ATOM      3  C   LIG d   1      -7.123  94.071 118.941  0.00  0.00     0.038 C 
ATOM      4  C   LIG d   1      -6.056  94.936 118.654  0.00  0.00     0.028 C 
ATOM      5  C   LIG d   1      -4.825  94.686 119.518  0.00  0.00    -0.047 C 
ATOM      6  C   LIG d   1      -4.464  93.184 119.454  0.00  0.00     0.091 C 
ENDROOT
BRANCH   1   7
ATOM      7  O   LIG d   1      -5.465  90.949 119.382  0.00  0.00    -0.368 OA
BRANCH   7   8
ATOM      8  C   LIG d   1      -4.952  90.821 118.033  0.00  0.00     0.119 C 
BRANCH   8   9
ATOM      9  C   LIG d   1      -6.101  90.297 117.149  0.00  0.00     0.028 C 
ATOM     10  C   LIG d   1      -6.518  91.308 116.069  0.00  0.00     0.006 C 
ENDBRANCH   8   9
BRANCH   8  11
ATOM     11  C   LIG d   1      -3.858  89.753 117.952  0.00  0.00     0.028 C 
ATOM     12  C   LIG d   1      -3.258  89.408 119.325  0.00  0.00     0.006 C 
ENDBRANCH   8  11
ENDBRANCH   7   8
ENDBRANCH   1   7
BRANCH   6  13
ATOM     13  N   LIG d   1      -3.320  92.838 120.338  0.00  0.00    -0.311 N 
ATOM     14  C   LIG d   1      -2.062  92.754 119.910  0.00  0.00     0.210 C 
ATOM     15  C   LIG d   1      -1.039  92.364 120.982  0.00  0.00     0.109 C 
ATOM     16  O   LIG d   1      -1.691  92.997 118.752  0.00  0.00    -0.276 OA
ATOM     17  H   LIG d   1      -3.527  92.656 121.301  0.00  0.00     0.149 HD
ENDBRANCH   6  13
BRANCH   5  18
ATOM     18  N   LIG d   1      -3.747  95.562 119.021  0.00  0.00     0.381 N 
ATOM     19  H   LIG d   1      -2.868  95.088 119.087  0.00  0.00    -0.090 HD
ATOM     20  H   LIG d   1      -3.705  96.384 119.597  0.00  0.00    -0.090 HD
ATOM     21  H   LIG d   1      -3.924  95.818 118.075  0.00  0.00    -0.090 HD
ENDBRANCH   5  18
BRANCH   3  22
ATOM     22  C   LIG d   1      -8.416  94.532 118.744  0.00  0.00     0.382 C 
ATOM     23  O   LIG d   1      -8.608  95.691 118.304  0.00  0.00    -0.241 OA
ATOM     24  O   LIG d   1      -9.393  93.820 119.043  0.00  0.00    -0.241 OA
ENDBRANCH   3  22
TORSDOF 7
ENDMDL
MODEL 7
REMARK VINA RESULT:      -4.7      2.650      5.985
REMARK  7 active torsions:
REMARK  status: ('A' for Active; 'I' for Inactive)
REMARK    1  A    between atoms: C_2  and  C_3 
REMARK    2  A    between atoms: C_3  and  O_6 
REMARK    3  A    between atoms: C_3  and  C_4 
REMARK    4  A    between atoms: C_7  and  O_6 
REMARK    5  A    between atoms: C_9  and  C_10 
REMARK    6  A    between atoms: N_15  and  C_14 
REMARK    7  A    between atoms: N_20  and  C_19 
REMARK       I    between atoms: C_22  and  N_20 
ROOT
ATOM      1  C   LIG d   1      -5.911  91.703 119.317  0.00  0.00     0.161 C 
ATOM      2  C   LIG d   1      -5.387  92.420 120.406  0.00  0.00     0.016 C 
ATOM      3  C   LIG d   1      -4.065  92.920 120.443  0.00  0.00     0.038 C 
ATOM      4  C   LIG d   1      -3.220  92.867 119.325  0.00  0.00     0.028 C 
ATOM      5  C   LIG d   1      -3.533  91.709 118.383  0.00  0.00    -0.047 C 
ATOM      6  C   LIG d   1      -5.041  91.732 118.044  0.00  0.00     0.091 C 
ENDROOT
BRANCH   1   7
ATOM      7  O   LIG d   1      -7.244  92.166 119.024  0.00  0.00    -0.368 OA
BRANCH   7   8
ATOM      8  C   LIG d   1      -7.563  93.510 119.462  0.00  0.00     0.119 C 
BRANCH   8   9
ATOM      9  C   LIG d   1      -8.988  93.480 120.048  0.00  0.00     0.028 C 
ATOM     10  C   LIG d   1      -8.991  93.288 121.574  0.00  0.00     0.006 C 
ENDBRANCH   8   9
BRANCH   8  11
ATOM     11  C   LIG d   1      -7.631  94.480 118.279  0.00  0.00     0.028 C 
ATOM     12  C   LIG d   1      -8.117  95.881 118.684  0.00  0.00     0.006 C 
ENDBRANCH   8  11
ENDBRANCH   7   8
ENDBRANCH   1   7
BRANCH   6  13
ATOM     13  N   LIG d   1      -5.448  90.583 117.194  0.00  0.00    -0.311 N 
ATOM     14  C   LIG d   1      -6.280  90.694 116.160  0.00  0.00     0.210 C 
ATOM     15  C   LIG d   1      -6.584  89.381 115.431  0.00  0.00     0.109 C 
ATOM     16  O   LIG d   1      -6.771  91.759 115.758  0.00  0.00    -0.276 OA
ATOM     17  H   LIG d   1      -5.072  89.685 117.430  0.00  0.00     0.149 HD
ENDBRANCH   6  13
BRANCH   5  18
ATOM     18  N   LIG d   1      -2.670  91.855 117.195  0.00  0.00     0.381 N 
ATOM     19  H   LIG d   1      -3.234  91.886 116.369  0.00  0.00    -0.090 HD
ATOM     20  H   LIG d   1      -2.064  91.056 117.134  0.00  0.00    -0.090 HD
ATOM     21  H   LIG d   1      -2.128  92.688 117.268  0.00  0.00    -0.090 HD
ENDBRANCH   5  18
BRANCH   3  22
ATOM     22  C   LIG d   1      -3.563  93.446 121.624  0.00  0.00     0.382 C 
ATOM     23  O   LIG d   1      -4.063  94.489 122.108  0.00  0.00    -0.241 OA
ATOM     24  O   LIG d   1      -2.587  92.914 122.187  0.00  0.00    -0.241 OA
ENDBRANCH   3  22
TORSDOF 7
ENDMDL
MODEL 8
REMARK VINA RESULT:      -4.5      2.433      4.229
REMARK  7 active torsions:
REMARK  status: ('A' for Active; 'I' for Inactive)
REMARK    1  A    between atoms: C_2  and  C_3 
REMARK    2  A    between atoms: C_3  and  O_6 
REMARK    3  A    between atoms: C_3  and  C_4 
REMARK    4  A    between atoms: C_7  and  O_6 
REMARK    5  A    between atoms: C_9  and  C_10 
REMARK    6  A    between atoms: N_15  and  C_14 
REMARK    7  A    between atoms: N_20  and  C_19 
REMARK       I    between atoms: C_22  and  N_20 
ROOT
ATOM      1  C   LIG d   1      -5.861  92.825 119.422  0.00  0.00     0.161 C 
ATOM      2  C   LIG d   1      -7.255  92.964 119.529  0.00  0.00     0.016 C 
ATOM      3  C   LIG d   1      -7.888  94.152 119.963  0.00  0.00     0.038 C 
ATOM      4  C   LIG d   1      -7.170  95.338 120.178  0.00  0.00     0.028 C 
ATOM      5  C   LIG d   1      -5.715  95.103 120.569  0.00  0.00    -0.047 C 
ATOM      6  C   LIG d   1      -5.068  94.142 119.545  0.00  0.00     0.091 C 
ENDROOT
BRANCH   1   7
ATOM      7  O   LIG d   1      -5.531  92.154 118.191  0.00  0.00    -0.368 OA
BRANCH   7   8
ATOM      8  C   LIG d   1      -5.650  90.710 118.199  0.00  0.00     0.119 C 
BRANCH   8   9
ATOM      9  C   LIG d   1      -4.230  90.126 118.067  0.00  0.00     0.028 C 
ATOM     10  C   LIG d   1      -3.508  90.029 119.421  0.00  0.00     0.006 C 
ENDBRANCH   8   9
BRANCH   8  11
ATOM     11  C   LIG d   1      -6.411  90.207 116.969  0.00  0.00     0.028 C 
ATOM     12  C   LIG d   1      -6.716  91.324 115.958  0.00  0.00     0.006 C 
ENDBRANCH   8  11
ENDBRANCH   7   8
ENDBRANCH   1   7
BRANCH   6  13
ATOM     13  N   LIG d   1      -3.668  93.793 119.901  0.00  0.00    -0.311 N 
ATOM     14  C   LIG d   1      -2.608  94.460 119.447  0.00  0.00     0.210 C 
ATOM     15  C   LIG d   1      -1.255  93.922 119.921  0.00  0.00     0.109 C 
ATOM     16  O   LIG d   1      -2.662  95.465 118.723  0.00  0.00    -0.276 OA
ATOM     17  H   LIG d   1      -3.534  93.010 120.509  0.00  0.00     0.149 HD
ENDBRANCH   6  13
BRANCH   5  18
ATOM     18  N   LIG d   1      -5.051  96.419 120.626  0.00  0.00     0.381 N 
ATOM     19  H   LIG d   1      -5.059  96.762 121.566  0.00  0.00    -0.090 HD
ATOM     20  H   LIG d   1      -5.561  97.066 120.050  0.00  0.00    -0.090 HD
ATOM     21  H   LIG d   1      -4.112  96.342 120.301  0.00  0.00    -0.090 HD
ENDBRANCH   5  18
BRANCH   3  22
ATOM     22  C   LIG d   1      -9.249  94.149 120.226  0.00  0.00     0.382 C 
ATOM     23  O   LIG d   1      -9.983  93.265 119.722  0.00  0.00    -0.241 OA
ATOM     24  O   LIG d   1      -9.759  95.045 120.925  0.00  0.00    -0.241 OA
ENDBRANCH   3  22
TORSDOF 7
ENDMDL
MODEL 9
REMARK VINA RESULT:      -4.3      2.510      5.068
REMARK  7 active torsions:
REMARK  status: ('A' for Active; 'I' for Inactive)
REMARK    1  A    between atoms: C_2  and  C_3 
REMARK    2  A    between atoms: C_3  and  O_6 
REMARK    3  A    between atoms: C_3  and  C_4 
REMARK    4  A    between atoms: C_7  and  O_6 
REMARK    5  A    between atoms: C_9  and  C_10 
REMARK    6  A    between atoms: N_15  and  C_14 
REMARK    7  A    between atoms: N_20  and  C_19 
REMARK       I    between atoms: C_22  and  N_20 
ROOT
ATOM      1  C   LIG d   1      -5.101  93.581 120.302  0.00  0.00     0.161 C 
ATOM      2  C   LIG d   1      -3.847  93.282 119.742  0.00  0.00     0.016 C 
ATOM      3  C   LIG d   1      -3.653  92.292 118.752  0.00  0.00     0.038 C 
ATOM      4  C   LIG d   1      -4.730  91.632 118.141  0.00  0.00     0.028 C 
ATOM      5  C   LIG d   1      -5.966  91.540 119.030  0.00  0.00    -0.047 C 
ATOM      6  C   LIG d   1      -6.303  92.949 119.569  0.00  0.00     0.091 C 
ENDROOT
BRANCH   1   7
ATOM      7  O   LIG d   1      -5.266  95.009 120.397  0.00  0.00    -0.368 OA
BRANCH   7   8
ATOM      8  C   LIG d   1      -5.759  95.674 119.208  0.00  0.00     0.119 C 
BRANCH   8   9
ATOM      9  C   LIG d   1      -4.682  96.681 118.760  0.00  0.00     0.028 C 
ATOM     10  C   LIG d   1      -3.773  97.122 119.920  0.00  0.00     0.006 C 
ENDBRANCH   8   9
BRANCH   8  11
ATOM     11  C   LIG d   1      -7.000  96.518 119.515  0.00  0.00     0.028 C 
ATOM     12  C   LIG d   1      -7.322  96.578 121.016  0.00  0.00     0.006 C 
ENDBRANCH   8  11
ENDBRANCH   7   8
ENDBRANCH   1   7
BRANCH   6  13
ATOM     13  N   LIG d   1      -7.449  92.935 120.515  0.00  0.00    -0.311 N 
ATOM     14  C   LIG d   1      -8.692  93.261 120.165  0.00  0.00     0.210 C 
ATOM     15  C   LIG d   1      -9.720  93.199 121.298  0.00  0.00     0.109 C 
ATOM     16  O   LIG d   1      -9.047  93.565 119.016  0.00  0.00    -0.276 OA
ATOM     17  H   LIG d   1      -7.257  92.670 121.461  0.00  0.00     0.149 HD
ENDBRANCH   6  13
BRANCH   5  18
ATOM     18  N   LIG d   1      -7.053  90.955 118.223  0.00  0.00     0.381 N 
ATOM     19  H   LIG d   1      -7.484  90.206 118.727  0.00  0.00    -0.090 HD
ATOM     20  H   LIG d   1      -6.663  90.580 117.375  0.00  0.00    -0.090 HD
ATOM     21  H   LIG d   1      -7.730  91.652 118.006  0.00  0.00    -0.090 HD
ENDBRANCH   5  18
BRANCH   3  22
ATOM     22  C   LIG d   1      -2.365  91.924 118.391  0.00  0.00     0.382 C 
ATOM     23  O   LIG d   1      -1.406  92.703 118.609  0.00  0.00    -0.241 OA
ATOM     24  O   LIG d   1      -2.157  90.842 117.811  0.00  0.00    -0.241 OA
ENDBRANCH   3  22
TORSDOF 7
ENDMDL
