MODEL 1
REMARK VINA RESULT:      -5.1      0.000      0.000
REMARK  7 active torsions:
REMARK  status: ('A' for Active; 'I' for Inactive)
REMARK    1  A    between atoms: C_2  and  C_3 
REMARK    2  A    between atoms: C_3  and  O_6 
REMARK    3  A    between atoms: C_3  and  C_4 
REMARK    4  A    between atoms: C_7  and  O_6 
REMARK    5  A    between atoms: C_9  and  C_10 
REMARK    6  A    between atoms: N_15  and  C_14 
REMARK    7  A    between atoms: N_20  and  C_19 
REMARK       I    between atoms: C_22  and  N_20 
ROOT
ATOM      1  C   LIG d   1      -6.098  93.459 118.610  0.00  0.00     0.161 C 
ATOM      2  C   LIG d   1      -6.892  92.484 117.984  0.00  0.00     0.016 C 
ATOM      3  C   LIG d   1      -6.357  91.365 117.305  0.00  0.00     0.038 C 
ATOM      4  C   LIG d   1      -4.988  91.063 117.336  0.00  0.00     0.028 C 
ATOM      5  C   LIG d   1      -4.102  92.289 117.527  0.00  0.00    -0.047 C 
ATOM      6  C   LIG d   1      -4.607  93.088 118.750  0.00  0.00     0.091 C 
ENDROOT
BRANCH   1   7
ATOM      7  O   LIG d   1      -6.655  93.789 119.898  0.00  0.00    -0.368 OA
BRANCH   7   8
ATOM      8  C   LIG d   1      -7.256  95.102 120.015  0.00  0.00     0.119 C 
BRANCH   8   9
ATOM      9  C   LIG d   1      -8.782  94.907 120.101  0.00  0.00     0.028 C 
ATOM     10  C   LIG d   1      -9.168  93.633 120.872  0.00  0.00     0.006 C 
ENDBRANCH   8   9
BRANCH   8  11
ATOM     11  C   LIG d   1      -7.025  95.936 118.751  0.00  0.00     0.028 C 
ATOM     12  C   LIG d   1      -8.321  96.547 118.195  0.00  0.00     0.006 C 
ENDBRANCH   8  11
ENDBRANCH   7   8
ENDBRANCH   1   7
BRANCH   6  13
ATOM     13  N   LIG d   1      -3.847  94.349 118.956  0.00  0.00    -0.311 N 
ATOM     14  C   LIG d   1      -2.794  94.445 119.765  0.00  0.00     0.210 C 
ATOM     15  C   LIG d   1      -2.169  95.841 119.849  0.00  0.00     0.109 C 
ATOM     16  O   LIG d   1      -2.298  93.500 120.397  0.00  0.00    -0.276 OA
ATOM     17  H   LIG d   1      -4.162  95.158 118.459  0.00  0.00     0.149 HD
ENDBRANCH   6  13
BRANCH   5  18
ATOM     18  N   LIG d   1      -2.713  91.816 117.679  0.00  0.00     0.381 N 
ATOM     19  H   LIG d   1      -2.215  91.946 116.821  0.00  0.00    -0.090 HD
ATOM     20  H   LIG d   1      -2.725  90.834 117.891  0.00  0.00    -0.090 HD
ATOM     21  H   LIG d   1      -2.261  92.316 118.412  0.00  0.00    -0.090 HD
ENDBRANCH   5  18
BRANCH   3  22
ATOM     22  C   LIG d   1      -7.193  90.555 116.551  0.00  0.00     0.382 C 
ATOM     23  O   LIG d   1      -8.301  90.193 117.015  0.00  0.00    -0.241 OA
ATOM     24  O   LIG d   1      -6.834  90.145 115.431  0.00  0.00    -0.241 OA
ENDBRANCH   3  22
TORSDOF 7
ENDMDL
MODEL 2
REMARK VINA RESULT:      -4.9      0.713      1.754
REMARK  7 active torsions:
REMARK  status: ('A' for Active; 'I' for Inactive)
REMARK    1  A    between atoms: C_2  and  C_3 
REMARK    2  A    between atoms: C_3  and  O_6 
REMARK    3  A    between atoms: C_3  and  C_4 
REMARK    4  A    between atoms: C_7  and  O_6 
REMARK    5  A    between atoms: C_9  and  C_10 
REMARK    6  A    between atoms: N_15  and  C_14 
REMARK    7  A    between atoms: N_20  and  C_19 
REMARK       I    between atoms: C_22  and  N_20 
ROOT
ATOM      1  C   LIG d   1      -6.058  93.526 118.653  0.00  0.00     0.161 C 
ATOM      2  C   LIG d   1      -6.796  92.516 118.013  0.00  0.00     0.016 C 
ATOM      3  C   LIG d   1      -6.200  91.418 117.351  0.00  0.00     0.038 C 
ATOM      4  C   LIG d   1      -4.820  91.174 117.415  0.00  0.00     0.028 C 
ATOM      5  C   LIG d   1      -3.990  92.437 117.621  0.00  0.00    -0.047 C 
ATOM      6  C   LIG d   1      -4.557  93.218 118.828  0.00  0.00     0.091 C 
ENDROOT
BRANCH   1   7
ATOM      7  O   LIG d   1      -6.658  93.836 119.927  0.00  0.00    -0.368 OA
BRANCH   7   8
ATOM      8  C   LIG d   1      -8.106  93.806 119.974  0.00  0.00     0.119 C 
BRANCH   8   9
ATOM      9  C   LIG d   1      -8.604  95.257 119.828  0.00  0.00     0.028 C 
ATOM     10  C   LIG d   1      -9.141  95.553 118.417  0.00  0.00     0.006 C 
ENDBRANCH   8   9
BRANCH   8  11
ATOM     11  C   LIG d   1      -8.609  93.341 121.344  0.00  0.00     0.028 C 
ATOM     12  C   LIG d   1      -7.627  92.391 122.048  0.00  0.00     0.006 C 
ENDBRANCH   8  11
ENDBRANCH   7   8
ENDBRANCH   1   7
BRANCH   6  13
ATOM     13  N   LIG d   1      -3.855  94.510 119.047  0.00  0.00    -0.311 N 
ATOM     14  C   LIG d   1      -2.807  94.647 119.858  0.00  0.00     0.210 C 
ATOM     15  C   LIG d   1      -2.246  96.069 119.955  0.00  0.00     0.109 C 
ATOM     16  O   LIG d   1      -2.269  93.719 120.481  0.00  0.00    -0.276 OA
ATOM     17  H   LIG d   1      -4.207  95.309 118.557  0.00  0.00     0.149 HD
ENDBRANCH   6  13
BRANCH   5  18
ATOM     18  N   LIG d   1      -2.587  92.023 117.806  0.00  0.00     0.381 N 
ATOM     19  H   LIG d   1      -2.550  91.057 118.063  0.00  0.00    -0.090 HD
ATOM     20  H   LIG d   1      -2.185  92.563 118.552  0.00  0.00    -0.090 HD
ATOM     21  H   LIG d   1      -2.074  92.171 116.965  0.00  0.00    -0.090 HD
ENDBRANCH   5  18
BRANCH   3  22
ATOM     22  C   LIG d   1      -6.984  90.572 116.582  0.00  0.00     0.382 C 
ATOM     23  O   LIG d   1      -8.108  90.204 117.002  0.00  0.00    -0.241 OA
ATOM     24  O   LIG d   1      -6.563  90.136 115.494  0.00  0.00    -0.241 OA
ENDBRANCH   3  22
TORSDOF 7
ENDMDL
MODEL 3
REMARK VINA RESULT:      -4.7      2.415      4.194
REMARK  7 active torsions:
REMARK  status: ('A' for Active; 'I' for Inactive)
REMARK    1  A    between atoms: C_2  and  C_3 
REMARK    2  A    between atoms: C_3  and  O_6 
REMARK    3  A    between atoms: C_3  and  C_4 
REMARK    4  A    between atoms: C_7  and  O_6 
REMARK    5  A    between atoms: C_9  and  C_10 
REMARK    6  A    between atoms: N_15  and  C_14 
REMARK    7  A    between atoms: N_20  and  C_19 
REMARK       I    between atoms: C_22  and  N_20 
ROOT
ATOM      1  C   LIG d   1      -6.112  92.259 119.651  0.00  0.00     0.161 C 
ATOM      2  C   LIG d   1      -6.271  91.323 118.615  0.00  0.00     0.016 C 
ATOM      3  C   LIG d   1      -6.770  91.656 117.335  0.00  0.00     0.038 C 
ATOM      4  C   LIG d   1      -7.003  92.986 116.953  0.00  0.00     0.028 C 
ATOM      5  C   LIG d   1      -7.336  93.903 118.125  0.00  0.00    -0.047 C 
ATOM      6  C   LIG d   1      -6.256  93.733 119.218  0.00  0.00     0.091 C 
ENDROOT
BRANCH   1   7
ATOM      7  O   LIG d   1      -4.845  92.051 120.307  0.00  0.00    -0.368 OA
BRANCH   7   8
ATOM      8  C   LIG d   1      -3.896  91.210 119.607  0.00  0.00     0.119 C 
BRANCH   8   9
ATOM      9  C   LIG d   1      -3.430  90.119 120.592  0.00  0.00     0.028 C 
ATOM     10  C   LIG d   1      -3.268  88.748 119.915  0.00  0.00     0.006 C 
ENDBRANCH   8   9
BRANCH   8  11
ATOM     11  C   LIG d   1      -2.630  91.988 119.236  0.00  0.00     0.028 C 
ATOM     12  C   LIG d   1      -2.823  92.885 118.003  0.00  0.00     0.006 C 
ENDBRANCH   8  11
ENDBRANCH   7   8
ENDBRANCH   1   7
BRANCH   6  13
ATOM     13  N   LIG d   1      -6.551  94.532 120.435  0.00  0.00    -0.311 N 
ATOM     14  C   LIG d   1      -6.063  95.754 120.647  0.00  0.00     0.210 C 
ATOM     15  C   LIG d   1      -6.475  96.394 121.976  0.00  0.00     0.109 C 
ATOM     16  O   LIG d   1      -5.354  96.380 119.845  0.00  0.00    -0.276 OA
ATOM     17  H   LIG d   1      -7.144  94.112 121.124  0.00  0.00     0.149 HD
ENDBRANCH   6  13
BRANCH   5  18
ATOM     18  N   LIG d   1      -7.418  95.281 117.603  0.00  0.00     0.381 N 
ATOM     19  H   LIG d   1      -8.277  95.703 117.896  0.00  0.00    -0.090 HD
ATOM     20  H   LIG d   1      -7.409  95.249 116.599  0.00  0.00    -0.090 HD
ATOM     21  H   LIG d   1      -6.647  95.817 117.934  0.00  0.00    -0.090 HD
ENDBRANCH   5  18
BRANCH   3  22
ATOM     22  C   LIG d   1      -7.078  90.649 116.434  0.00  0.00     0.382 C 
ATOM     23  O   LIG d   1      -8.164  90.028 116.535  0.00  0.00    -0.241 OA
ATOM     24  O   LIG d   1      -6.265  90.322 115.548  0.00  0.00    -0.241 OA
ENDBRANCH   3  22
TORSDOF 7
ENDMDL
MODEL 4
REMARK VINA RESULT:      -4.4      2.299      4.802
REMARK  7 active torsions:
REMARK  status: ('A' for Active; 'I' for Inactive)
REMARK    1  A    between atoms: C_2  and  C_3 
REMARK    2  A    between atoms: C_3  and  O_6 
REMARK    3  A    between atoms: C_3  and  C_4 
REMARK    4  A    between atoms: C_7  and  O_6 
REMARK    5  A    between atoms: C_9  and  C_10 
REMARK    6  A    between atoms: N_15  and  C_14 
REMARK    7  A    between atoms: N_20  and  C_19 
REMARK       I    between atoms: C_22  and  N_20 
ROOT
ATOM      1  C   LIG d   1      -4.042  91.797 118.436  0.00  0.00     0.161 C 
ATOM      2  C   LIG d   1      -4.894  91.057 117.600  0.00  0.00     0.016 C 
ATOM      3  C   LIG d   1      -6.174  91.506 117.198  0.00  0.00     0.038 C 
ATOM      4  C   LIG d   1      -6.628  92.801 117.486  0.00  0.00     0.028 C 
ATOM      5  C   LIG d   1      -6.013  93.393 118.749  0.00  0.00    -0.047 C 
ATOM      6  C   LIG d   1      -4.475  93.260 118.668  0.00  0.00     0.091 C 
ENDROOT
BRANCH   1   7
ATOM      7  O   LIG d   1      -2.695  91.748 117.926  0.00  0.00    -0.368 OA
BRANCH   7   8
ATOM      8  C   LIG d   1      -1.839  90.721 118.484  0.00  0.00     0.119 C 
BRANCH   8   9
ATOM      9  C   LIG d   1      -1.038  91.360 119.635  0.00  0.00     0.028 C 
ATOM     10  C   LIG d   1      -1.209  90.601 120.962  0.00  0.00     0.006 C 
ENDBRANCH   8   9
BRANCH   8  11
ATOM     11  C   LIG d   1      -0.790  90.257 117.469  0.00  0.00     0.028 C 
ATOM     12  C   LIG d   1       0.533  91.029 117.584  0.00  0.00     0.006 C 
ENDBRANCH   8  11
ENDBRANCH   7   8
ENDBRANCH   1   7
BRANCH   6  13
ATOM     13  N   LIG d   1      -3.799  93.738 119.902  0.00  0.00    -0.311 N 
ATOM     14  C   LIG d   1      -2.838  94.660 119.901  0.00  0.00     0.210 C 
ATOM     15  C   LIG d   1      -2.261  94.994 121.280  0.00  0.00     0.109 C 
ATOM     16  O   LIG d   1      -2.430  95.256 118.892  0.00  0.00    -0.276 OA
ATOM     17  H   LIG d   1      -4.089  93.330 120.769  0.00  0.00     0.149 HD
ENDBRANCH   6  13
BRANCH   5  18
ATOM     18  N   LIG d   1      -6.467  94.792 118.854  0.00  0.00     0.381 N 
ATOM     19  H   LIG d   1      -5.897  95.285 119.511  0.00  0.00    -0.090 HD
ATOM     20  H   LIG d   1      -7.415  94.802 119.188  0.00  0.00    -0.090 HD
ATOM     21  H   LIG d   1      -6.417  95.234 117.962  0.00  0.00    -0.090 HD
ENDBRANCH   5  18
BRANCH   3  22
ATOM     22  C   LIG d   1      -7.029  90.639 116.535  0.00  0.00     0.382 C 
ATOM     23  O   LIG d   1      -8.113  90.298 117.068  0.00  0.00    -0.241 OA
ATOM     24  O   LIG d   1      -6.711  90.160 115.430  0.00  0.00    -0.241 OA
ENDBRANCH   3  22
TORSDOF 7
ENDMDL
MODEL 5
REMARK VINA RESULT:      -4.3      3.571      7.303
REMARK  7 active torsions:
REMARK  status: ('A' for Active; 'I' for Inactive)
REMARK    1  A    between atoms: C_2  and  C_3 
REMARK    2  A    between atoms: C_3  and  O_6 
REMARK    3  A    between atoms: C_3  and  C_4 
REMARK    4  A    between atoms: C_7  and  O_6 
REMARK    5  A    between atoms: C_9  and  C_10 
REMARK    6  A    between atoms: N_15  and  C_14 
REMARK    7  A    between atoms: N_20  and  C_19 
REMARK       I    between atoms: C_22  and  N_20 
ROOT
ATOM      1  C   LIG d   1      -1.935  90.452 117.831  0.00  0.00     0.161 C 
ATOM      2  C   LIG d   1      -0.811  90.880 118.558  0.00  0.00     0.016 C 
ATOM      3  C   LIG d   1      -0.738  92.130 119.214  0.00  0.00     0.038 C 
ATOM      4  C   LIG d   1      -1.849  92.981 119.314  0.00  0.00     0.028 C 
ATOM      5  C   LIG d   1      -2.843  92.817 118.168  0.00  0.00    -0.047 C 
ATOM      6  C   LIG d   1      -3.197  91.319 118.022  0.00  0.00     0.091 C 
ENDROOT
BRANCH   1   7
ATOM      7  O   LIG d   1      -2.222  89.074 118.141  0.00  0.00    -0.368 OA
BRANCH   7   8
ATOM      8  C   LIG d   1      -2.044  88.682 119.525  0.00  0.00     0.119 C 
BRANCH   8   9
ATOM      9  C   LIG d   1      -1.443  87.263 119.530  0.00  0.00     0.028 C 
ATOM     10  C   LIG d   1      -0.286  87.112 118.528  0.00  0.00     0.006 C 
ENDBRANCH   8   9
BRANCH   8  11
ATOM     11  C   LIG d   1      -3.390  88.554 120.245  0.00  0.00     0.028 C 
ATOM     12  C   LIG d   1      -3.476  87.300 121.129  0.00  0.00     0.006 C 
ENDBRANCH   8  11
ENDBRANCH   7   8
ENDBRANCH   1   7
BRANCH   6  13
ATOM     13  N   LIG d   1      -4.099  91.060 116.870  0.00  0.00    -0.311 N 
ATOM     14  C   LIG d   1      -5.417  90.906 116.991  0.00  0.00     0.210 C 
ATOM     15  C   LIG d   1      -6.158  90.627 115.680  0.00  0.00     0.109 C 
ATOM     16  O   LIG d   1      -6.046  91.007 118.055  0.00  0.00    -0.276 OA
ATOM     17  H   LIG d   1      -3.676  90.994 115.965  0.00  0.00     0.149 HD
ENDBRANCH   6  13
BRANCH   5  18
ATOM     18  N   LIG d   1      -4.014  93.661 118.470  0.00  0.00     0.381 N 
ATOM     19  H   LIG d   1      -3.842  94.195 119.298  0.00  0.00    -0.090 HD
ATOM     20  H   LIG d   1      -4.808  93.068 118.637  0.00  0.00    -0.090 HD
ATOM     21  H   LIG d   1      -4.201  94.271 117.705  0.00  0.00    -0.090 HD
ENDBRANCH   5  18
BRANCH   3  22
ATOM     22  C   LIG d   1       0.469  92.559 119.744  0.00  0.00     0.382 C 
ATOM     23  O   LIG d   1       0.887  92.074 120.823  0.00  0.00    -0.241 OA
ATOM     24  O   LIG d   1       1.124  93.456 119.180  0.00  0.00    -0.241 OA
ENDBRANCH   3  22
TORSDOF 7
ENDMDL
MODEL 6
REMARK VINA RESULT:      -4.3      3.972      7.442
REMARK  7 active torsions:
REMARK  status: ('A' for Active; 'I' for Inactive)
REMARK    1  A    between atoms: C_2  and  C_3 
REMARK    2  A    between atoms: C_3  and  O_6 
REMARK    3  A    between atoms: C_3  and  C_4 
REMARK    4  A    between atoms: C_7  and  O_6 
REMARK    5  A    between atoms: C_9  and  C_10 
REMARK    6  A    between atoms: N_15  and  C_14 
REMARK    7  A    between atoms: N_20  and  C_19 
REMARK       I    between atoms: C_22  and  N_20 
ROOT
ATOM      1  C   LIG d   1      -0.944  91.491 118.136  0.00  0.00     0.161 C 
ATOM      2  C   LIG d   1       0.439  91.634 118.336  0.00  0.00     0.016 C 
ATOM      3  C   LIG d   1       1.104  92.881 118.315  0.00  0.00     0.038 C 
ATOM      4  C   LIG d   1       0.403  94.094 118.242  0.00  0.00     0.028 C 
ATOM      5  C   LIG d   1      -0.942  93.974 117.534  0.00  0.00    -0.047 C 
ATOM      6  C   LIG d   1      -1.741  92.812 118.167  0.00  0.00     0.091 C 
ENDROOT
BRANCH   1   7
ATOM      7  O   LIG d   1      -1.483  90.559 119.095  0.00  0.00    -0.368 OA
BRANCH   7   8
ATOM      8  C   LIG d   1      -1.985  89.311 118.557  0.00  0.00     0.119 C 
BRANCH   8   9
ATOM      9  C   LIG d   1      -3.316  89.003 119.269  0.00  0.00     0.028 C 
ATOM     10  C   LIG d   1      -3.135  88.057 120.468  0.00  0.00     0.006 C 
ENDBRANCH   8   9
BRANCH   8  11
ATOM     11  C   LIG d   1      -1.059  88.142 118.905  0.00  0.00     0.028 C 
ATOM     12  C   LIG d   1      -0.193  87.693 117.717  0.00  0.00     0.006 C 
ENDBRANCH   8  11
ENDBRANCH   7   8
ENDBRANCH   1   7
BRANCH   6  13
ATOM     13  N   LIG d   1      -3.036  92.572 117.477  0.00  0.00    -0.311 N 
ATOM     14  C   LIG d   1      -4.201  92.480 118.115  0.00  0.00     0.210 C 
ATOM     15  C   LIG d   1      -5.411  92.210 117.216  0.00  0.00     0.109 C 
ATOM     16  O   LIG d   1      -4.351  92.628 119.338  0.00  0.00    -0.276 OA
ATOM     17  H   LIG d   1      -3.010  92.471 116.481  0.00  0.00     0.149 HD
ENDBRANCH   6  13
BRANCH   5  18
ATOM     18  N   LIG d   1      -1.625  95.277 117.651  0.00  0.00     0.381 N 
ATOM     19  H   LIG d   1      -2.521  95.231 117.207  0.00  0.00    -0.090 HD
ATOM     20  H   LIG d   1      -1.076  95.975 117.182  0.00  0.00    -0.090 HD
ATOM     21  H   LIG d   1      -1.734  95.519 118.611  0.00  0.00    -0.090 HD
ENDBRANCH   5  18
BRANCH   3  22
ATOM     22  C   LIG d   1       2.490  92.921 118.326  0.00  0.00     0.382 C 
ATOM     23  O   LIG d   1       3.136  92.573 117.309  0.00  0.00    -0.241 OA
ATOM     24  O   LIG d   1       3.103  93.260 119.356  0.00  0.00    -0.241 OA
ENDBRANCH   3  22
TORSDOF 7
ENDMDL
MODEL 7
REMARK VINA RESULT:      -4.1      2.437      4.860
REMARK  7 active torsions:
REMARK  status: ('A' for Active; 'I' for Inactive)
REMARK    1  A    between atoms: C_2  and  C_3 
REMARK    2  A    between atoms: C_3  and  O_6 
REMARK    3  A    between atoms: C_3  and  C_4 
REMARK    4  A    between atoms: C_7  and  O_6 
REMARK    5  A    between atoms: C_9  and  C_10 
REMARK    6  A    between atoms: N_15  and  C_14 
REMARK    7  A    between atoms: N_20  and  C_19 
REMARK       I    between atoms: C_22  and  N_20 
ROOT
ATOM      1  C   LIG d   1      -4.564  93.097 119.457  0.00  0.00     0.161 C 
ATOM      2  C   LIG d   1      -3.536  92.201 119.121  0.00  0.00     0.016 C 
ATOM      3  C   LIG d   1      -3.715  91.103 118.248  0.00  0.00     0.038 C 
ATOM      4  C   LIG d   1      -4.904  90.914 117.529  0.00  0.00     0.028 C 
ATOM      5  C   LIG d   1      -6.130  91.502 118.220  0.00  0.00    -0.047 C 
ATOM      6  C   LIG d   1      -5.838  92.972 118.596  0.00  0.00     0.091 C 
ENDROOT
BRANCH   1   7
ATOM      7  O   LIG d   1      -4.065  94.449 119.421  0.00  0.00    -0.368 OA
BRANCH   7   8
ATOM      8  C   LIG d   1      -2.639  94.607 119.623  0.00  0.00     0.119 C 
BRANCH   8   9
ATOM      9  C   LIG d   1      -2.440  95.328 120.971  0.00  0.00     0.028 C 
ATOM     10  C   LIG d   1      -2.274  94.346 122.143  0.00  0.00     0.006 C 
ENDBRANCH   8   9
BRANCH   8  11
ATOM     11  C   LIG d   1      -2.027  95.537 118.571  0.00  0.00     0.028 C 
ATOM     12  C   LIG d   1      -1.231  94.779 117.497  0.00  0.00     0.006 C 
ENDBRANCH   8  11
ENDBRANCH   7   8
ENDBRANCH   1   7
BRANCH   6  13
ATOM     13  N   LIG d   1      -6.955  93.597 119.351  0.00  0.00    -0.311 N 
ATOM     14  C   LIG d   1      -7.945  94.274 118.771  0.00  0.00     0.210 C 
ATOM     15  C   LIG d   1      -8.984  94.853 119.735  0.00  0.00     0.109 C 
ATOM     16  O   LIG d   1      -8.077  94.422 117.547  0.00  0.00    -0.276 OA
ATOM     17  H   LIG d   1      -6.943  93.499 120.347  0.00  0.00     0.149 HD
ENDBRANCH   6  13
BRANCH   5  18
ATOM     18  N   LIG d   1      -7.274  91.356 117.299  0.00  0.00     0.381 N 
ATOM     19  H   LIG d   1      -8.124  91.291 117.822  0.00  0.00    -0.090 HD
ATOM     20  H   LIG d   1      -7.161  90.508 116.773  0.00  0.00    -0.090 HD
ATOM     21  H   LIG d   1      -7.315  92.136 116.681  0.00  0.00    -0.090 HD
ENDBRANCH   5  18
BRANCH   3  22
ATOM     22  C   LIG d   1      -2.710  90.157 118.119  0.00  0.00     0.382 C 
ATOM     23  O   LIG d   1      -1.601  90.483 117.631  0.00  0.00    -0.241 OA
ATOM     24  O   LIG d   1      -2.913  88.971 118.444  0.00  0.00    -0.241 OA
ENDBRANCH   3  22
TORSDOF 7
ENDMDL
MODEL 8
REMARK VINA RESULT:      -4.1      3.793      6.026
REMARK  7 active torsions:
REMARK  status: ('A' for Active; 'I' for Inactive)
REMARK    1  A    between atoms: C_2  and  C_3 
REMARK    2  A    between atoms: C_3  and  O_6 
REMARK    3  A    between atoms: C_3  and  C_4 
REMARK    4  A    between atoms: C_7  and  O_6 
REMARK    5  A    between atoms: C_9  and  C_10 
REMARK    6  A    between atoms: N_15  and  C_14 
REMARK    7  A    between atoms: N_20  and  C_19 
REMARK       I    between atoms: C_22  and  N_20 
ROOT
ATOM      1  C   LIG d   1      -3.049  90.192 118.887  0.00  0.00     0.161 C 
ATOM      2  C   LIG d   1      -4.440  90.294 118.725  0.00  0.00     0.016 C 
ATOM      3  C   LIG d   1      -5.079  91.433 118.184  0.00  0.00     0.038 C 
ATOM      4  C   LIG d   1      -4.353  92.494 117.624  0.00  0.00     0.028 C 
ATOM      5  C   LIG d   1      -2.960  92.657 118.222  0.00  0.00    -0.047 C 
ATOM      6  C   LIG d   1      -2.233  91.294 118.179  0.00  0.00     0.091 C 
ENDROOT
BRANCH   1   7
ATOM      7  O   LIG d   1      -2.602  88.888 118.464  0.00  0.00    -0.368 OA
BRANCH   7   8
ATOM      8  C   LIG d   1      -2.276  87.952 119.521  0.00  0.00     0.119 C 
BRANCH   8   9
ATOM      9  C   LIG d   1      -2.116  88.761 120.823  0.00  0.00     0.028 C 
ATOM     10  C   LIG d   1      -0.689  88.686 121.390  0.00  0.00     0.006 C 
ENDBRANCH   8   9
BRANCH   8  11
ATOM     11  C   LIG d   1      -0.913  87.295 119.282  0.00  0.00     0.028 C 
ATOM     12  C   LIG d   1      -0.331  87.617 117.897  0.00  0.00     0.006 C 
ENDBRANCH   8  11
ENDBRANCH   7   8
ENDBRANCH   1   7
BRANCH   6  13
ATOM     13  N   LIG d   1      -0.894  91.345 118.822  0.00  0.00    -0.311 N 
ATOM     14  C   LIG d   1       0.246  91.170 118.156  0.00  0.00     0.210 C 
ATOM     15  C   LIG d   1       1.514  91.243 119.013  0.00  0.00     0.109 C 
ATOM     16  O   LIG d   1       0.330  90.994 116.931  0.00  0.00    -0.276 OA
ATOM     17  H   LIG d   1      -0.868  91.514 119.808  0.00  0.00     0.149 HD
ENDBRANCH   6  13
BRANCH   5  18
ATOM     18  N   LIG d   1      -2.265  93.707 117.453  0.00  0.00     0.381 N 
ATOM     19  H   LIG d   1      -2.487  93.619 116.482  0.00  0.00    -0.090 HD
ATOM     20  H   LIG d   1      -1.273  93.588 117.563  0.00  0.00    -0.090 HD
ATOM     21  H   LIG d   1      -2.537  94.607 117.783  0.00  0.00    -0.090 HD
ENDBRANCH   5  18
BRANCH   3  22
ATOM     22  C   LIG d   1      -6.461  91.535 118.236  0.00  0.00     0.382 C 
ATOM     23  O   LIG d   1      -6.998  92.425 118.939  0.00  0.00    -0.241 OA
ATOM     24  O   LIG d   1      -7.178  90.721 117.623  0.00  0.00    -0.241 OA
ENDBRANCH   3  22
TORSDOF 7
ENDMDL
MODEL 9
REMARK VINA RESULT:      -4.0      2.451      3.739
REMARK  7 active torsions:
REMARK  status: ('A' for Active; 'I' for Inactive)
REMARK    1  A    between atoms: C_2  and  C_3 
REMARK    2  A    between atoms: C_3  and  O_6 
REMARK    3  A    between atoms: C_3  and  C_4 
REMARK    4  A    between atoms: C_7  and  O_6 
REMARK    5  A    between atoms: C_9  and  C_10 
REMARK    6  A    between atoms: N_15  and  C_14 
REMARK    7  A    between atoms: N_20  and  C_19 
REMARK       I    between atoms: C_22  and  N_20 
ROOT
ATOM      1  C   LIG d   1      -3.590  93.119 118.094  0.00  0.00     0.161 C 
ATOM      2  C   LIG d   1      -4.986  92.988 118.186  0.00  0.00     0.016 C 
ATOM      3  C   LIG d   1      -5.649  91.740 118.237  0.00  0.00     0.038 C 
ATOM      4  C   LIG d   1      -4.946  90.532 118.353  0.00  0.00     0.028 C 
ATOM      5  C   LIG d   1      -3.544  90.587 117.756  0.00  0.00    -0.047 C 
ATOM      6  C   LIG d   1      -2.801  91.814 118.331  0.00  0.00     0.091 C 
ENDROOT
BRANCH   1   7
ATOM      7  O   LIG d   1      -3.136  94.150 118.993  0.00  0.00    -0.368 OA
BRANCH   7   8
ATOM      8  C   LIG d   1      -3.975  94.405 120.146  0.00  0.00     0.119 C 
BRANCH   8   9
ATOM      9  C   LIG d   1      -4.064  95.933 120.324  0.00  0.00     0.028 C 
ATOM     10  C   LIG d   1      -3.070  96.688 119.426  0.00  0.00     0.006 C 
ENDBRANCH   8   9
BRANCH   8  11
ATOM     11  C   LIG d   1      -3.328  93.883 121.433  0.00  0.00     0.028 C 
ATOM     12  C   LIG d   1      -3.846  92.495 121.840  0.00  0.00     0.006 C 
ENDBRANCH   8  11
ENDBRANCH   7   8
ENDBRANCH   1   7
BRANCH   6  13
ATOM     13  N   LIG d   1      -1.451  91.990 117.735  0.00  0.00    -0.311 N 
ATOM     14  C   LIG d   1      -0.351  92.192 118.459  0.00  0.00     0.210 C 
ATOM     15  C   LIG d   1       0.935  92.369 117.645  0.00  0.00     0.109 C 
ATOM     16  O   LIG d   1      -0.313  92.210 119.698  0.00  0.00    -0.276 OA
ATOM     17  H   LIG d   1      -1.385  91.959 116.737  0.00  0.00     0.149 HD
ENDBRANCH   6  13
BRANCH   5  18
ATOM     18  N   LIG d   1      -2.876  89.309 118.067  0.00  0.00     0.381 N 
ATOM     19  H   LIG d   1      -3.554  88.573 118.105  0.00  0.00    -0.090 HD
ATOM     20  H   LIG d   1      -2.440  89.382 118.969  0.00  0.00    -0.090 HD
ATOM     21  H   LIG d   1      -2.191  89.104 117.374  0.00  0.00    -0.090 HD
ENDBRANCH   5  18
BRANCH   3  22
ATOM     22  C   LIG d   1      -7.030  91.691 118.132  0.00  0.00     0.382 C 
ATOM     23  O   LIG d   1      -7.580  90.743 117.521  0.00  0.00    -0.241 OA
ATOM     24  O   LIG d   1      -7.732  92.607 118.602  0.00  0.00    -0.241 OA
ENDBRANCH   3  22
TORSDOF 7
ENDMDL
