MODEL 1
REMARK VINA RESULT:      -5.1      0.000      0.000
REMARK  7 active torsions:
REMARK  status: ('A' for Active; 'I' for Inactive)
REMARK    1  A    between atoms: C_2  and  C_3 
REMARK    2  A    between atoms: C_3  and  O_6 
REMARK    3  A    between atoms: C_3  and  C_4 
REMARK    4  A    between atoms: C_7  and  O_6 
REMARK    5  A    between atoms: C_9  and  C_10 
REMARK    6  A    between atoms: N_15  and  C_14 
REMARK    7  A    between atoms: N_20  and  C_19 
REMARK       I    between atoms: C_22  and  N_20 
ROOT
ATOM      1  C   LIG d   1      -2.887  90.786 117.918  0.00  0.00     0.161 C 
ATOM      2  C   LIG d   1      -3.876  90.179 117.127  0.00  0.00     0.016 C 
ATOM      3  C   LIG d   1      -5.100  90.804 116.796  0.00  0.00     0.038 C 
ATOM      4  C   LIG d   1      -5.356  92.147 117.111  0.00  0.00     0.028 C 
ATOM      5  C   LIG d   1      -4.599  92.635 118.342  0.00  0.00    -0.047 C 
ATOM      6  C   LIG d   1      -3.101  92.292 118.178  0.00  0.00     0.091 C 
ENDROOT
BRANCH   1   7
ATOM      7  O   LIG d   1      -1.588  90.557 117.337  0.00  0.00    -0.368 OA
BRANCH   7   8
ATOM      8  C   LIG d   1      -0.703  89.682 118.079  0.00  0.00     0.119 C 
BRANCH   8   9
ATOM      9  C   LIG d   1       0.674  90.369 118.152  0.00  0.00     0.028 C 
ATOM     10  C   LIG d   1       0.702  91.709 117.398  0.00  0.00     0.006 C 
ENDBRANCH   8   9
BRANCH   8  11
ATOM     11  C   LIG d   1      -0.461  88.369 117.328  0.00  0.00     0.028 C 
ATOM     12  C   LIG d   1      -1.461  87.268 117.716  0.00  0.00     0.006 C 
ENDBRANCH   8  11
ENDBRANCH   7   8
ENDBRANCH   1   7
BRANCH   6  13
ATOM     13  N   LIG d   1      -2.301  92.660 119.375  0.00  0.00    -0.311 N 
ATOM     14  C   LIG d   1      -1.612  93.796 119.476  0.00  0.00     0.210 C 
ATOM     15  C   LIG d   1      -0.839  93.969 120.787  0.00  0.00     0.109 C 
ATOM     16  O   LIG d   1      -1.593  94.690 118.616  0.00  0.00    -0.276 OA
ATOM     17  H   LIG d   1      -2.286  92.006 120.133  0.00  0.00     0.149 HD
ENDBRANCH   6  13
BRANCH   5  18
ATOM     18  N   LIG d   1      -4.850  94.083 118.474  0.00  0.00     0.381 N 
ATOM     19  H   LIG d   1      -5.000  94.314 119.435  0.00  0.00    -0.090 HD
ATOM     20  H   LIG d   1      -5.681  94.317 117.960  0.00  0.00    -0.090 HD
ATOM     21  H   LIG d   1      -4.075  94.597 118.118  0.00  0.00    -0.090 HD
ENDBRANCH   5  18
BRANCH   3  22
ATOM     22  C   LIG d   1      -6.101  90.070 116.177  0.00  0.00     0.382 C 
ATOM     23  O   LIG d   1      -7.255  90.550 116.070  0.00  0.00    -0.241 OA
ATOM     24  O   LIG d   1      -5.876  88.917 115.764  0.00  0.00    -0.241 OA
ENDBRANCH   3  22
TORSDOF 7
ENDMDL
MODEL 2
REMARK VINA RESULT:      -5.0      0.798      1.664
REMARK  7 active torsions:
REMARK  status: ('A' for Active; 'I' for Inactive)
REMARK    1  A    between atoms: C_2  and  C_3 
REMARK    2  A    between atoms: C_3  and  O_6 
REMARK    3  A    between atoms: C_3  and  C_4 
REMARK    4  A    between atoms: C_7  and  O_6 
REMARK    5  A    between atoms: C_9  and  C_10 
REMARK    6  A    between atoms: N_15  and  C_14 
REMARK    7  A    between atoms: N_20  and  C_19 
REMARK       I    between atoms: C_22  and  N_20 
ROOT
ATOM      1  C   LIG d   1      -2.910  90.757 117.943  0.00  0.00     0.161 C 
ATOM      2  C   LIG d   1      -3.850  90.182 117.072  0.00  0.00     0.016 C 
ATOM      3  C   LIG d   1      -5.043  90.830 116.677  0.00  0.00     0.038 C 
ATOM      4  C   LIG d   1      -5.305  92.168 117.009  0.00  0.00     0.028 C 
ATOM      5  C   LIG d   1      -4.627  92.615 118.300  0.00  0.00    -0.047 C 
ATOM      6  C   LIG d   1      -3.125  92.259 118.227  0.00  0.00     0.091 C 
ENDROOT
BRANCH   1   7
ATOM      7  O   LIG d   1      -1.577  90.528 117.444  0.00  0.00    -0.368 OA
BRANCH   7   8
ATOM      8  C   LIG d   1      -0.744  89.644 118.234  0.00  0.00     0.119 C 
BRANCH   8   9
ATOM      9  C   LIG d   1      -0.523  88.359 117.413  0.00  0.00     0.028 C 
ATOM     10  C   LIG d   1      -1.518  87.247 117.785  0.00  0.00     0.006 C 
ENDBRANCH   8   9
BRANCH   8  11
ATOM     11  C   LIG d   1      -1.463  89.192 119.509  0.00  0.00     0.028 C 
ATOM     12  C   LIG d   1      -0.717  89.600 120.789  0.00  0.00     0.006 C 
ENDBRANCH   8  11
ENDBRANCH   7   8
ENDBRANCH   1   7
BRANCH   6  13
ATOM     13  N   LIG d   1      -2.403  92.586 119.484  0.00  0.00    -0.311 N 
ATOM     14  C   LIG d   1      -1.282  93.305 119.520  0.00  0.00     0.210 C 
ATOM     15  C   LIG d   1      -0.689  93.509 120.917  0.00  0.00     0.109 C 
ATOM     16  O   LIG d   1      -0.739  93.819 118.530  0.00  0.00    -0.276 OA
ATOM     17  H   LIG d   1      -2.790  92.235 120.338  0.00  0.00     0.149 HD
ENDBRANCH   6  13
BRANCH   5  18
ATOM     18  N   LIG d   1      -4.871  94.062 118.453  0.00  0.00     0.381 N 
ATOM     19  H   LIG d   1      -4.815  94.511 117.561  0.00  0.00    -0.090 HD
ATOM     20  H   LIG d   1      -4.159  94.451 119.047  0.00  0.00    -0.090 HD
ATOM     21  H   LIG d   1      -5.770  94.216 118.854  0.00  0.00    -0.090 HD
ENDBRANCH   5  18
BRANCH   3  22
ATOM     22  C   LIG d   1      -6.008  90.125 115.974  0.00  0.00     0.382 C 
ATOM     23  O   LIG d   1      -7.080  90.687 115.645  0.00  0.00    -0.241 OA
ATOM     24  O   LIG d   1      -5.838  88.921 115.702  0.00  0.00    -0.241 OA
ENDBRANCH   3  22
TORSDOF 7
ENDMDL
MODEL 3
REMARK VINA RESULT:      -4.8      2.080      4.284
REMARK  7 active torsions:
REMARK  status: ('A' for Active; 'I' for Inactive)
REMARK    1  A    between atoms: C_2  and  C_3 
REMARK    2  A    between atoms: C_3  and  O_6 
REMARK    3  A    between atoms: C_3  and  C_4 
REMARK    4  A    between atoms: C_7  and  O_6 
REMARK    5  A    between atoms: C_9  and  C_10 
REMARK    6  A    between atoms: N_15  and  C_14 
REMARK    7  A    between atoms: N_20  and  C_19 
REMARK       I    between atoms: C_22  and  N_20 
ROOT
ATOM      1  C   LIG d   1      -3.272  92.762 117.808  0.00  0.00     0.161 C 
ATOM      2  C   LIG d   1      -4.342  92.018 117.283  0.00  0.00     0.016 C 
ATOM      3  C   LIG d   1      -4.292  90.619 117.083  0.00  0.00     0.038 C 
ATOM      4  C   LIG d   1      -3.216  89.843 117.539  0.00  0.00     0.028 C 
ATOM      5  C   LIG d   1      -1.902  90.614 117.615  0.00  0.00    -0.047 C 
ATOM      6  C   LIG d   1      -2.132  91.917 118.414  0.00  0.00     0.091 C 
ENDROOT
BRANCH   1   7
ATOM      7  O   LIG d   1      -3.765  93.708 118.778  0.00  0.00    -0.368 OA
BRANCH   7   8
ATOM      8  C   LIG d   1      -4.919  93.289 119.547  0.00  0.00     0.119 C 
BRANCH   8   9
ATOM      9  C   LIG d   1      -5.925  94.457 119.545  0.00  0.00     0.028 C 
ATOM     10  C   LIG d   1      -7.113  94.207 118.601  0.00  0.00     0.006 C 
ENDBRANCH   8   9
BRANCH   8  11
ATOM     11  C   LIG d   1      -4.558  93.068 121.019  0.00  0.00     0.028 C 
ATOM     12  C   LIG d   1      -4.384  91.582 121.372  0.00  0.00     0.006 C 
ENDBRANCH   8  11
ENDBRANCH   7   8
ENDBRANCH   1   7
BRANCH   6  13
ATOM     13  N   LIG d   1      -0.917  92.772 118.465  0.00  0.00    -0.311 N 
ATOM     14  C   LIG d   1      -0.043  92.745 119.469  0.00  0.00     0.210 C 
ATOM     15  C   LIG d   1       1.129  93.722 119.333  0.00  0.00     0.109 C 
ATOM     16  O   LIG d   1      -0.111  91.982 120.445  0.00  0.00    -0.276 OA
ATOM     17  H   LIG d   1      -0.768  93.399 117.698  0.00  0.00     0.149 HD
ENDBRANCH   6  13
BRANCH   5  18
ATOM     18  N   LIG d   1      -0.900  89.726 118.234  0.00  0.00     0.381 N 
ATOM     19  H   LIG d   1      -0.039  90.221 118.356  0.00  0.00    -0.090 HD
ATOM     20  H   LIG d   1      -0.732  88.948 117.620  0.00  0.00    -0.090 HD
ATOM     21  H   LIG d   1      -1.231  89.398 119.114  0.00  0.00    -0.090 HD
ENDBRANCH   5  18
BRANCH   3  22
ATOM     22  C   LIG d   1      -5.310  89.988 116.385  0.00  0.00     0.382 C 
ATOM     23  O   LIG d   1      -6.450  90.509 116.331  0.00  0.00    -0.241 OA
ATOM     24  O   LIG d   1      -5.115  88.882 115.845  0.00  0.00    -0.241 OA
ENDBRANCH   3  22
TORSDOF 7
ENDMDL
MODEL 4
REMARK VINA RESULT:      -4.8      2.439      5.555
REMARK  7 active torsions:
REMARK  status: ('A' for Active; 'I' for Inactive)
REMARK    1  A    between atoms: C_2  and  C_3 
REMARK    2  A    between atoms: C_3  and  O_6 
REMARK    3  A    between atoms: C_3  and  C_4 
REMARK    4  A    between atoms: C_7  and  O_6 
REMARK    5  A    between atoms: C_9  and  C_10 
REMARK    6  A    between atoms: N_15  and  C_14 
REMARK    7  A    between atoms: N_20  and  C_19 
REMARK       I    between atoms: C_22  and  N_20 
ROOT
ATOM      1  C   LIG d   1       0.160  90.535 116.953  0.00  0.00     0.161 C 
ATOM      2  C   LIG d   1       1.415  91.113 117.205  0.00  0.00     0.016 C 
ATOM      3  C   LIG d   1       1.583  92.333 117.901  0.00  0.00     0.038 C 
ATOM      4  C   LIG d   1       0.510  92.984 118.527  0.00  0.00     0.028 C 
ATOM      5  C   LIG d   1      -0.836  92.702 117.870  0.00  0.00    -0.047 C 
ATOM      6  C   LIG d   1      -1.014  91.173 117.725  0.00  0.00     0.091 C 
ENDROOT
BRANCH   1   7
ATOM      7  O   LIG d   1       0.215  89.117 117.209  0.00  0.00    -0.368 OA
BRANCH   7   8
ATOM      8  C   LIG d   1      -0.033  88.706 118.575  0.00  0.00     0.119 C 
BRANCH   8   9
ATOM      9  C   LIG d   1       1.221  87.958 119.069  0.00  0.00     0.028 C 
ATOM     10  C   LIG d   1       0.899  86.932 120.168  0.00  0.00     0.006 C 
ENDBRANCH   8   9
BRANCH   8  11
ATOM     11  C   LIG d   1      -1.170  87.683 118.652  0.00  0.00     0.028 C 
ATOM     12  C   LIG d   1      -1.627  87.196 117.267  0.00  0.00     0.006 C 
ENDBRANCH   8  11
ENDBRANCH   7   8
ENDBRANCH   1   7
BRANCH   6  13
ATOM     13  N   LIG d   1      -2.268  90.813 117.015  0.00  0.00    -0.311 N 
ATOM     14  C   LIG d   1      -3.416  90.555 117.639  0.00  0.00     0.210 C 
ATOM     15  C   LIG d   1      -4.584  90.184 116.719  0.00  0.00     0.109 C 
ATOM     16  O   LIG d   1      -3.587  90.630 118.865  0.00  0.00    -0.276 OA
ATOM     17  H   LIG d   1      -2.228  90.760 116.016  0.00  0.00     0.149 HD
ENDBRANCH   6  13
BRANCH   5  18
ATOM     18  N   LIG d   1      -1.879  93.329 118.703  0.00  0.00     0.381 N 
ATOM     19  H   LIG d   1      -1.454  93.849 119.444  0.00  0.00    -0.090 HD
ATOM     20  H   LIG d   1      -2.447  92.607 119.111  0.00  0.00    -0.090 HD
ATOM     21  H   LIG d   1      -2.445  93.931 118.147  0.00  0.00    -0.090 HD
ENDBRANCH   5  18
BRANCH   3  22
ATOM     22  C   LIG d   1       2.832  92.934 117.941  0.00  0.00     0.382 C 
ATOM     23  O   LIG d   1       3.156  93.643 118.924  0.00  0.00    -0.241 OA
ATOM     24  O   LIG d   1       3.623  92.813 116.986  0.00  0.00    -0.241 OA
ENDBRANCH   3  22
TORSDOF 7
ENDMDL
MODEL 5
REMARK VINA RESULT:      -4.3      2.390      3.693
REMARK  7 active torsions:
REMARK  status: ('A' for Active; 'I' for Inactive)
REMARK    1  A    between atoms: C_2  and  C_3 
REMARK    2  A    between atoms: C_3  and  O_6 
REMARK    3  A    between atoms: C_3  and  C_4 
REMARK    4  A    between atoms: C_7  and  O_6 
REMARK    5  A    between atoms: C_9  and  C_10 
REMARK    6  A    between atoms: N_15  and  C_14 
REMARK    7  A    between atoms: N_20  and  C_19 
REMARK       I    between atoms: C_22  and  N_20 
ROOT
ATOM      1  C   LIG d   1      -0.818  90.877 117.971  0.00  0.00     0.161 C 
ATOM      2  C   LIG d   1      -2.184  91.149 117.784  0.00  0.00     0.016 C 
ATOM      3  C   LIG d   1      -2.735  92.449 117.851  0.00  0.00     0.038 C 
ATOM      4  C   LIG d   1      -1.928  93.591 117.960  0.00  0.00     0.028 C 
ATOM      5  C   LIG d   1      -0.597  93.328 118.656  0.00  0.00    -0.047 C 
ATOM      6  C   LIG d   1       0.093  92.121 117.981  0.00  0.00     0.091 C 
ENDROOT
BRANCH   1   7
ATOM      7  O   LIG d   1      -0.368  89.933 116.979  0.00  0.00    -0.368 OA
BRANCH   7   8
ATOM      8  C   LIG d   1       0.040  88.634 117.474  0.00  0.00     0.119 C 
BRANCH   8   9
ATOM      9  C   LIG d   1       1.029  88.039 116.454  0.00  0.00     0.028 C 
ATOM     10  C   LIG d   1       0.428  86.861 115.670  0.00  0.00     0.006 C 
ENDBRANCH   8   9
BRANCH   8  11
ATOM     11  C   LIG d   1      -1.139  87.657 117.512  0.00  0.00     0.028 C 
ATOM     12  C   LIG d   1      -1.726  87.485 118.922  0.00  0.00     0.006 C 
ENDBRANCH   8  11
ENDBRANCH   7   8
ENDBRANCH   1   7
BRANCH   6  13
ATOM     13  N   LIG d   1       1.363  91.744 118.655  0.00  0.00    -0.311 N 
ATOM     14  C   LIG d   1       2.547  91.749 118.045  0.00  0.00     0.210 C 
ATOM     15  C   LIG d   1       3.726  91.306 118.917  0.00  0.00     0.109 C 
ATOM     16  O   LIG d   1       2.737  92.109 116.873  0.00  0.00    -0.276 OA
ATOM     17  H   LIG d   1       1.305  91.468 119.616  0.00  0.00     0.149 HD
ENDBRANCH   6  13
BRANCH   5  18
ATOM     18  N   LIG d   1       0.200  94.568 118.579  0.00  0.00     0.381 N 
ATOM     19  H   LIG d   1      -0.118  95.127 117.812  0.00  0.00    -0.090 HD
ATOM     20  H   LIG d   1       1.161  94.326 118.416  0.00  0.00    -0.090 HD
ATOM     21  H   LIG d   1       0.118  95.080 119.429  0.00  0.00    -0.090 HD
ENDBRANCH   5  18
BRANCH   3  22
ATOM     22  C   LIG d   1      -4.111  92.613 117.848  0.00  0.00     0.382 C 
ATOM     23  O   LIG d   1      -4.703  92.963 118.898  0.00  0.00    -0.241 OA
ATOM     24  O   LIG d   1      -4.774  92.373 116.821  0.00  0.00    -0.241 OA
ENDBRANCH   3  22
TORSDOF 7
ENDMDL
MODEL 6
REMARK VINA RESULT:      -4.3      2.393      5.294
REMARK  7 active torsions:
REMARK  status: ('A' for Active; 'I' for Inactive)
REMARK    1  A    between atoms: C_2  and  C_3 
REMARK    2  A    between atoms: C_3  and  O_6 
REMARK    3  A    between atoms: C_3  and  C_4 
REMARK    4  A    between atoms: C_7  and  O_6 
REMARK    5  A    between atoms: C_9  and  C_10 
REMARK    6  A    between atoms: N_15  and  C_14 
REMARK    7  A    between atoms: N_20  and  C_19 
REMARK       I    between atoms: C_22  and  N_20 
ROOT
ATOM      1  C   LIG d   1      -1.321  92.185 118.068  0.00  0.00     0.161 C 
ATOM      2  C   LIG d   1       0.076  92.066 117.983  0.00  0.00     0.016 C 
ATOM      3  C   LIG d   1       0.970  93.095 118.361  0.00  0.00     0.038 C 
ATOM      4  C   LIG d   1       0.527  94.266 118.994  0.00  0.00     0.028 C 
ATOM      5  C   LIG d   1      -0.908  94.642 118.638  0.00  0.00    -0.047 C 
ATOM      6  C   LIG d   1      -1.818  93.412 118.860  0.00  0.00     0.091 C 
ENDROOT
BRANCH   1   7
ATOM      7  O   LIG d   1      -1.882  90.975 118.613  0.00  0.00    -0.368 OA
BRANCH   7   8
ATOM      8  C   LIG d   1      -2.414  90.030 117.652  0.00  0.00     0.119 C 
BRANCH   8   9
ATOM      9  C   LIG d   1      -3.951  90.146 117.690  0.00  0.00     0.028 C 
ATOM     10  C   LIG d   1      -4.521  90.804 116.422  0.00  0.00     0.006 C 
ENDBRANCH   8   9
BRANCH   8  11
ATOM     11  C   LIG d   1      -2.107  88.587 118.062  0.00  0.00     0.028 C 
ATOM     12  C   LIG d   1      -1.299  88.496 119.366  0.00  0.00     0.006 C 
ENDBRANCH   8  11
ENDBRANCH   7   8
ENDBRANCH   1   7
BRANCH   6  13
ATOM     13  N   LIG d   1      -3.225  93.669 118.455  0.00  0.00    -0.311 N 
ATOM     14  C   LIG d   1      -4.266  93.486 119.266  0.00  0.00     0.210 C 
ATOM     15  C   LIG d   1      -5.632  93.791 118.643  0.00  0.00     0.109 C 
ATOM     16  O   LIG d   1      -4.185  93.132 120.452  0.00  0.00    -0.276 OA
ATOM     17  H   LIG d   1      -3.380  93.989 117.519  0.00  0.00     0.149 HD
ENDBRANCH   6  13
BRANCH   5  18
ATOM     18  N   LIG d   1      -1.285  95.799 119.472  0.00  0.00     0.381 N 
ATOM     19  H   LIG d   1      -1.252  96.636 118.925  0.00  0.00    -0.090 HD
ATOM     20  H   LIG d   1      -0.625  95.887 120.224  0.00  0.00    -0.090 HD
ATOM     21  H   LIG d   1      -2.202  95.670 119.839  0.00  0.00    -0.090 HD
ENDBRANCH   5  18
BRANCH   3  22
ATOM     22  C   LIG d   1       2.320  92.975 118.068  0.00  0.00     0.382 C 
ATOM     23  O   LIG d   1       2.687  92.321 117.062  0.00  0.00    -0.241 OA
ATOM     24  O   LIG d   1       3.176  93.475 118.821  0.00  0.00    -0.241 OA
ENDBRANCH   3  22
TORSDOF 7
ENDMDL
MODEL 7
REMARK VINA RESULT:      -4.2      2.337      5.279
REMARK  7 active torsions:
REMARK  status: ('A' for Active; 'I' for Inactive)
REMARK    1  A    between atoms: C_2  and  C_3 
REMARK    2  A    between atoms: C_3  and  O_6 
REMARK    3  A    between atoms: C_3  and  C_4 
REMARK    4  A    between atoms: C_7  and  O_6 
REMARK    5  A    between atoms: C_9  and  C_10 
REMARK    6  A    between atoms: N_15  and  C_14 
REMARK    7  A    between atoms: N_20  and  C_19 
REMARK       I    between atoms: C_22  and  N_20 
ROOT
ATOM      1  C   LIG d   1      -0.943  91.276 117.655  0.00  0.00     0.161 C 
ATOM      2  C   LIG d   1       0.420  91.486 117.924  0.00  0.00     0.016 C 
ATOM      3  C   LIG d   1       0.951  92.733 118.328  0.00  0.00     0.038 C 
ATOM      4  C   LIG d   1       0.126  93.824 118.638  0.00  0.00     0.028 C 
ATOM      5  C   LIG d   1      -1.206  93.807 117.896  0.00  0.00    -0.047 C 
ATOM      6  C   LIG d   1      -1.873  92.426 118.095  0.00  0.00     0.091 C 
ENDROOT
BRANCH   1   7
ATOM      7  O   LIG d   1      -1.371  90.032 118.243  0.00  0.00    -0.368 OA
BRANCH   7   8
ATOM      8  C   LIG d   1      -0.350  89.264 118.925  0.00  0.00     0.119 C 
BRANCH   8   9
ATOM      9  C   LIG d   1      -0.228  87.909 118.201  0.00  0.00     0.028 C 
ATOM     10  C   LIG d   1      -1.591  87.364 117.745  0.00  0.00     0.006 C 
ENDBRANCH   8   9
BRANCH   8  11
ATOM     11  C   LIG d   1      -0.772  88.923 120.357  0.00  0.00     0.028 C 
ATOM     12  C   LIG d   1      -1.577  90.049 121.025  0.00  0.00     0.006 C 
ENDBRANCH   8  11
ENDBRANCH   7   8
ENDBRANCH   1   7
BRANCH   6  13
ATOM     13  N   LIG d   1      -3.142  92.294 117.332  0.00  0.00    -0.311 N 
ATOM     14  C   LIG d   1      -4.335  92.607 117.835  0.00  0.00     0.210 C 
ATOM     15  C   LIG d   1      -5.516  92.377 116.887  0.00  0.00     0.109 C 
ATOM     16  O   LIG d   1      -4.524  93.083 118.964  0.00  0.00    -0.276 OA
ATOM     17  H   LIG d   1      -3.078  91.945 116.396  0.00  0.00     0.149 HD
ENDBRANCH   6  13
BRANCH   5  18
ATOM     18  N   LIG d   1      -2.021  94.922 118.415  0.00  0.00     0.381 N 
ATOM     19  H   LIG d   1      -2.964  94.618 118.551  0.00  0.00    -0.090 HD
ATOM     20  H   LIG d   1      -2.023  95.665 117.738  0.00  0.00    -0.090 HD
ATOM     21  H   LIG d   1      -1.642  95.249 119.276  0.00  0.00    -0.090 HD
ENDBRANCH   5  18
BRANCH   3  22
ATOM     22  C   LIG d   1       2.325  92.908 118.387  0.00  0.00     0.382 C 
ATOM     23  O   LIG d   1       2.941  93.369 117.396  0.00  0.00    -0.241 OA
ATOM     24  O   LIG d   1       2.962  92.570 119.403  0.00  0.00    -0.241 OA
ENDBRANCH   3  22
TORSDOF 7
ENDMDL
MODEL 8
REMARK VINA RESULT:      -4.2      1.670      2.283
REMARK  7 active torsions:
REMARK  status: ('A' for Active; 'I' for Inactive)
REMARK    1  A    between atoms: C_2  and  C_3 
REMARK    2  A    between atoms: C_3  and  O_6 
REMARK    3  A    between atoms: C_3  and  C_4 
REMARK    4  A    between atoms: C_7  and  O_6 
REMARK    5  A    between atoms: C_9  and  C_10 
REMARK    6  A    between atoms: N_15  and  C_14 
REMARK    7  A    between atoms: N_20  and  C_19 
REMARK       I    between atoms: C_22  and  N_20 
ROOT
ATOM      1  C   LIG d   1      -2.990  91.668 119.328  0.00  0.00     0.161 C 
ATOM      2  C   LIG d   1      -3.400  90.881 118.239  0.00  0.00     0.016 C 
ATOM      3  C   LIG d   1      -4.392  91.286 117.316  0.00  0.00     0.038 C 
ATOM      4  C   LIG d   1      -4.937  92.578 117.333  0.00  0.00     0.028 C 
ATOM      5  C   LIG d   1      -4.921  93.224 118.714  0.00  0.00    -0.047 C 
ATOM      6  C   LIG d   1      -3.493  93.126 119.298  0.00  0.00     0.091 C 
ENDROOT
BRANCH   1   7
ATOM      7  O   LIG d   1      -1.553  91.636 119.440  0.00  0.00    -0.368 OA
BRANCH   7   8
ATOM      8  C   LIG d   1      -0.894  90.484 118.860  0.00  0.00     0.119 C 
BRANCH   8   9
ATOM      9  C   LIG d   1      -0.418  89.589 120.021  0.00  0.00     0.028 C 
ATOM     10  C   LIG d   1      -1.106  88.213 120.021  0.00  0.00     0.006 C 
ENDBRANCH   8   9
BRANCH   8  11
ATOM     11  C   LIG d   1       0.380  90.889 118.112  0.00  0.00     0.028 C 
ATOM     12  C   LIG d   1       0.385  90.422 116.648  0.00  0.00     0.006 C 
ENDBRANCH   8  11
ENDBRANCH   7   8
ENDBRANCH   1   7
BRANCH   6  13
ATOM     13  N   LIG d   1      -3.409  93.660 120.683  0.00  0.00    -0.311 N 
ATOM     14  C   LIG d   1      -3.052  94.911 120.966  0.00  0.00     0.210 C 
ATOM     15  C   LIG d   1      -3.010  95.250 122.459  0.00  0.00     0.109 C 
ATOM     16  O   LIG d   1      -2.796  95.782 120.121  0.00  0.00    -0.276 OA
ATOM     17  H   LIG d   1      -3.630  93.029 121.429  0.00  0.00     0.149 HD
ENDBRANCH   6  13
BRANCH   5  18
ATOM     18  N   LIG d   1      -5.389  94.615 118.561  0.00  0.00     0.381 N 
ATOM     19  H   LIG d   1      -4.993  95.187 119.280  0.00  0.00    -0.090 HD
ATOM     20  H   LIG d   1      -6.389  94.634 118.659  0.00  0.00    -0.090 HD
ATOM     21  H   LIG d   1      -5.128  94.966 117.666  0.00  0.00    -0.090 HD
ENDBRANCH   5  18
BRANCH   3  22
ATOM     22  C   LIG d   1      -4.877  90.378 116.387  0.00  0.00     0.382 C 
ATOM     23  O   LIG d   1      -4.568  89.166 116.475  0.00  0.00    -0.241 OA
ATOM     24  O   LIG d   1      -5.583  90.765 115.436  0.00  0.00    -0.241 OA
ENDBRANCH   3  22
TORSDOF 7
ENDMDL
MODEL 9
REMARK VINA RESULT:      -4.1      2.761      5.357
REMARK  7 active torsions:
REMARK  status: ('A' for Active; 'I' for Inactive)
REMARK    1  A    between atoms: C_2  and  C_3 
REMARK    2  A    between atoms: C_3  and  O_6 
REMARK    3  A    between atoms: C_3  and  C_4 
REMARK    4  A    between atoms: C_7  and  O_6 
REMARK    5  A    between atoms: C_9  and  C_10 
REMARK    6  A    between atoms: N_15  and  C_14 
REMARK    7  A    between atoms: N_20  and  C_19 
REMARK       I    between atoms: C_22  and  N_20 
ROOT
ATOM      1  C   LIG d   1      -0.533  91.352 118.487  0.00  0.00     0.161 C 
ATOM      2  C   LIG d   1       0.758  91.288 117.938  0.00  0.00     0.016 C 
ATOM      3  C   LIG d   1       1.667  92.370 117.958  0.00  0.00     0.038 C 
ATOM      4  C   LIG d   1       1.399  93.551 118.667  0.00  0.00     0.028 C 
ATOM      5  C   LIG d   1      -0.091  93.848 118.807  0.00  0.00    -0.047 C 
ATOM      6  C   LIG d   1      -0.803  92.594 119.362  0.00  0.00     0.091 C 
ENDROOT
BRANCH   1   7
ATOM      7  O   LIG d   1      -0.810  90.147 119.228  0.00  0.00    -0.368 OA
BRANCH   7   8
ATOM      8  C   LIG d   1      -2.058  89.481 118.919  0.00  0.00     0.119 C 
BRANCH   8   9
ATOM      9  C   LIG d   1      -1.790  87.963 118.936  0.00  0.00     0.028 C 
ATOM     10  C   LIG d   1      -1.454  87.411 117.540  0.00  0.00     0.006 C 
ENDBRANCH   8   9
BRANCH   8  11
ATOM     11  C   LIG d   1      -2.519  89.795 117.492  0.00  0.00     0.028 C 
ATOM     12  C   LIG d   1      -3.963  90.318 117.434  0.00  0.00     0.006 C 
ENDBRANCH   8  11
ENDBRANCH   7   8
ENDBRANCH   1   7
BRANCH   6  13
ATOM     13  N   LIG d   1      -2.276  92.771 119.451  0.00  0.00    -0.311 N 
ATOM     14  C   LIG d   1      -2.902  93.168 120.557  0.00  0.00     0.210 C 
ATOM     15  C   LIG d   1      -4.426  93.266 120.438  0.00  0.00     0.109 C 
ATOM     16  O   LIG d   1      -2.336  93.479 121.616  0.00  0.00    -0.276 OA
ATOM     17  H   LIG d   1      -2.809  92.570 118.627  0.00  0.00     0.149 HD
ENDBRANCH   6  13
BRANCH   5  18
ATOM     18  N   LIG d   1      -0.229  95.027 119.682  0.00  0.00     0.381 N 
ATOM     19  H   LIG d   1       0.150  95.833 119.227  0.00  0.00    -0.090 HD
ATOM     20  H   LIG d   1       0.290  94.868 120.527  0.00  0.00    -0.090 HD
ATOM     21  H   LIG d   1      -1.190  95.180 119.898  0.00  0.00    -0.090 HD
ENDBRANCH   5  18
BRANCH   3  22
ATOM     22  C   LIG d   1       2.844  92.293 117.229  0.00  0.00     0.382 C 
ATOM     23  O   LIG d   1       3.630  93.271 117.203  0.00  0.00    -0.241 OA
ATOM     24  O   LIG d   1       3.109  91.275 116.563  0.00  0.00    -0.241 OA
ENDBRANCH   3  22
TORSDOF 7
ENDMDL
