MODEL 1
REMARK VINA RESULT:      -5.3      0.000      0.000
REMARK  7 active torsions:
REMARK  status: ('A' for Active; 'I' for Inactive)
REMARK    1  A    between atoms: C_2  and  C_3 
REMARK    2  A    between atoms: C_3  and  O_6 
REMARK    3  A    between atoms: C_3  and  C_4 
REMARK    4  A    between atoms: C_7  and  O_6 
REMARK    5  A    between atoms: C_9  and  C_10 
REMARK    6  A    between atoms: N_15  and  C_14 
REMARK    7  A    between atoms: N_20  and  C_19 
REMARK       I    between atoms: C_22  and  N_20 
ROOT
ATOM      1  C   LIG d   1      -3.209  91.105 117.687  0.00  0.00     0.161 C 
ATOM      2  C   LIG d   1      -4.240  90.589 116.884  0.00  0.00     0.016 C 
ATOM      3  C   LIG d   1      -5.503  91.208 116.746  0.00  0.00     0.038 C 
ATOM      4  C   LIG d   1      -5.771  92.475 117.287  0.00  0.00     0.028 C 
ATOM      5  C   LIG d   1      -4.934  92.796 118.521  0.00  0.00    -0.047 C 
ATOM      6  C   LIG d   1      -3.444  92.542 118.196  0.00  0.00     0.091 C 
ENDROOT
BRANCH   1   7
ATOM      7  O   LIG d   1      -1.954  91.021 116.983  0.00  0.00    -0.368 OA
BRANCH   7   8
ATOM      8  C   LIG d   1      -1.148  89.848 117.254  0.00  0.00     0.119 C 
BRANCH   8   9
ATOM      9  C   LIG d   1      -1.317  89.505 118.747  0.00  0.00     0.028 C 
ATOM     10  C   LIG d   1      -0.132  89.990 119.599  0.00  0.00     0.006 C 
ENDBRANCH   8   9
BRANCH   8  11
ATOM     11  C   LIG d   1       0.344  90.142 117.072  0.00  0.00     0.028 C 
ATOM     12  C   LIG d   1       0.939  89.457 115.832  0.00  0.00     0.006 C 
ENDBRANCH   8  11
ENDBRANCH   7   8
ENDBRANCH   1   7
BRANCH   6  13
ATOM     13  N   LIG d   1      -2.563  92.751 119.374  0.00  0.00    -0.311 N 
ATOM     14  C   LIG d   1      -1.447  93.477 119.336  0.00  0.00     0.210 C 
ATOM     15  C   LIG d   1      -0.676  93.548 120.658  0.00  0.00     0.109 C 
ATOM     16  O   LIG d   1      -1.039  94.096 118.341  0.00  0.00    -0.276 OA
ATOM     17  H   LIG d   1      -2.835  92.311 120.231  0.00  0.00     0.149 HD
ENDBRANCH   6  13
BRANCH   5  18
ATOM     18  N   LIG d   1      -5.213  94.194 118.898  0.00  0.00     0.381 N 
ATOM     19  H   LIG d   1      -4.400  94.755 118.746  0.00  0.00    -0.090 HD
ATOM     20  H   LIG d   1      -5.441  94.227 119.876  0.00  0.00    -0.090 HD
ATOM     21  H   LIG d   1      -5.974  94.546 118.360  0.00  0.00    -0.090 HD
ENDBRANCH   5  18
BRANCH   3  22
ATOM     22  C   LIG d   1      -6.529  90.541 116.094  0.00  0.00     0.382 C 
ATOM     23  O   LIG d   1      -6.585  89.288 116.132  0.00  0.00    -0.241 OA
ATOM     24  O   LIG d   1      -7.373  91.173 115.431  0.00  0.00    -0.241 OA
ENDBRANCH   3  22
TORSDOF 7
ENDMDL
MODEL 2
REMARK VINA RESULT:      -5.3      2.360      3.646
REMARK  7 active torsions:
REMARK  status: ('A' for Active; 'I' for Inactive)
REMARK    1  A    between atoms: C_2  and  C_3 
REMARK    2  A    between atoms: C_3  and  O_6 
REMARK    3  A    between atoms: C_3  and  C_4 
REMARK    4  A    between atoms: C_7  and  O_6 
REMARK    5  A    between atoms: C_9  and  C_10 
REMARK    6  A    between atoms: N_15  and  C_14 
REMARK    7  A    between atoms: N_20  and  C_19 
REMARK       I    between atoms: C_22  and  N_20 
ROOT
ATOM      1  C   LIG d   1      -4.817  92.560 118.439  0.00  0.00     0.161 C 
ATOM      2  C   LIG d   1      -6.208  92.730 118.545  0.00  0.00     0.016 C 
ATOM      3  C   LIG d   1      -6.809  93.841 119.180  0.00  0.00     0.038 C 
ATOM      4  C   LIG d   1      -6.057  94.939 119.624  0.00  0.00     0.028 C 
ATOM      5  C   LIG d   1      -4.621  94.580 119.991  0.00  0.00    -0.047 C 
ATOM      6  C   LIG d   1      -3.983  93.801 118.818  0.00  0.00     0.091 C 
ENDROOT
BRANCH   1   7
ATOM      7  O   LIG d   1      -4.479  92.116 117.110  0.00  0.00    -0.368 OA
BRANCH   7   8
ATOM      8  C   LIG d   1      -4.347  90.684 116.931  0.00  0.00     0.119 C 
BRANCH   8   9
ATOM      9  C   LIG d   1      -2.842  90.360 116.880  0.00  0.00     0.028 C 
ATOM     10  C   LIG d   1      -2.355  89.631 118.144  0.00  0.00     0.006 C 
ENDBRANCH   8   9
BRANCH   8  11
ATOM     11  C   LIG d   1      -4.904  90.239 115.575  0.00  0.00     0.028 C 
ATOM     12  C   LIG d   1      -6.440  90.219 115.539  0.00  0.00     0.006 C 
ENDBRANCH   8  11
ENDBRANCH   7   8
ENDBRANCH   1   7
BRANCH   6  13
ATOM     13  N   LIG d   1      -2.604  93.339 119.128  0.00  0.00    -0.311 N 
ATOM     14  C   LIG d   1      -1.558  93.570 118.337  0.00  0.00     0.210 C 
ATOM     15  C   LIG d   1      -0.231  92.989 118.834  0.00  0.00     0.109 C 
ATOM     16  O   LIG d   1      -1.597  94.230 117.288  0.00  0.00    -0.276 OA
ATOM     17  H   LIG d   1      -2.476  92.822 119.977  0.00  0.00     0.149 HD
ENDBRANCH   6  13
BRANCH   5  18
ATOM     18  N   LIG d   1      -3.914  95.836 120.303  0.00  0.00     0.381 N 
ATOM     19  H   LIG d   1      -4.432  96.357 120.982  0.00  0.00    -0.090 HD
ATOM     20  H   LIG d   1      -3.847  96.388 119.466  0.00  0.00    -0.090 HD
ATOM     21  H   LIG d   1      -3.002  95.637 120.652  0.00  0.00    -0.090 HD
ENDBRANCH   5  18
BRANCH   3  22
ATOM     22  C   LIG d   1      -8.176  93.842 119.414  0.00  0.00     0.382 C 
ATOM     23  O   LIG d   1      -8.694  92.935 120.109  0.00  0.00    -0.241 OA
ATOM     24  O   LIG d   1      -8.904  94.713 118.901  0.00  0.00    -0.241 OA
ENDBRANCH   3  22
TORSDOF 7
ENDMDL
MODEL 3
REMARK VINA RESULT:      -5.1      2.009      2.671
REMARK  7 active torsions:
REMARK  status: ('A' for Active; 'I' for Inactive)
REMARK    1  A    between atoms: C_2  and  C_3 
REMARK    2  A    between atoms: C_3  and  O_6 
REMARK    3  A    between atoms: C_3  and  C_4 
REMARK    4  A    between atoms: C_7  and  O_6 
REMARK    5  A    between atoms: C_9  and  C_10 
REMARK    6  A    between atoms: N_15  and  C_14 
REMARK    7  A    between atoms: N_20  and  C_19 
REMARK       I    between atoms: C_22  and  N_20 
ROOT
ATOM      1  C   LIG d   1      -3.991  92.115 119.038  0.00  0.00     0.161 C 
ATOM      2  C   LIG d   1      -4.106  91.152 118.021  0.00  0.00     0.016 C 
ATOM      3  C   LIG d   1      -5.141  91.159 117.057  0.00  0.00     0.038 C 
ATOM      4  C   LIG d   1      -6.050  92.222 116.952  0.00  0.00     0.028 C 
ATOM      5  C   LIG d   1      -6.278  92.956 118.269  0.00  0.00    -0.047 C 
ATOM      6  C   LIG d   1      -4.908  93.344 118.871  0.00  0.00     0.091 C 
ENDROOT
BRANCH   1   7
ATOM      7  O   LIG d   1      -2.616  92.529 119.164  0.00  0.00    -0.368 OA
BRANCH   7   8
ATOM      8  C   LIG d   1      -1.653  91.793 118.370  0.00  0.00     0.119 C 
BRANCH   8   9
ATOM      9  C   LIG d   1      -0.716  91.055 119.346  0.00  0.00     0.028 C 
ATOM     10  C   LIG d   1      -1.172  89.611 119.618  0.00  0.00     0.006 C 
ENDBRANCH   8   9
BRANCH   8  11
ATOM     11  C   LIG d   1      -0.747  92.738 117.575  0.00  0.00     0.028 C 
ATOM     12  C   LIG d   1      -1.313  94.164 117.477  0.00  0.00     0.006 C 
ENDBRANCH   8  11
ENDBRANCH   7   8
ENDBRANCH   1   7
BRANCH   6  13
ATOM     13  N   LIG d   1      -5.037  93.992 120.203  0.00  0.00    -0.311 N 
ATOM     14  C   LIG d   1      -4.541  95.197 120.483  0.00  0.00     0.210 C 
ATOM     15  C   LIG d   1      -4.768  95.670 121.922  0.00  0.00     0.109 C 
ATOM     16  O   LIG d   1      -3.964  95.931 119.667  0.00  0.00    -0.276 OA
ATOM     17  H   LIG d   1      -5.519  93.480 120.915  0.00  0.00     0.149 HD
ENDBRANCH   6  13
BRANCH   5  18
ATOM     18  N   LIG d   1      -7.137  94.122 117.987  0.00  0.00     0.381 N 
ATOM     19  H   LIG d   1      -7.537  94.462 118.839  0.00  0.00    -0.090 HD
ATOM     20  H   LIG d   1      -7.884  93.836 117.380  0.00  0.00    -0.090 HD
ATOM     21  H   LIG d   1      -6.602  94.842 117.552  0.00  0.00    -0.090 HD
ENDBRANCH   5  18
BRANCH   3  22
ATOM     22  C   LIG d   1      -5.298  90.072 116.210  0.00  0.00     0.382 C 
ATOM     23  O   LIG d   1      -6.415  89.509 116.113  0.00  0.00    -0.241 OA
ATOM     24  O   LIG d   1      -4.326  89.621 115.575  0.00  0.00    -0.241 OA
ENDBRANCH   3  22
TORSDOF 7
ENDMDL
MODEL 4
REMARK VINA RESULT:      -5.0      1.812      4.673
REMARK  7 active torsions:
REMARK  status: ('A' for Active; 'I' for Inactive)
REMARK    1  A    between atoms: C_2  and  C_3 
REMARK    2  A    between atoms: C_3  and  O_6 
REMARK    3  A    between atoms: C_3  and  C_4 
REMARK    4  A    between atoms: C_7  and  O_6 
REMARK    5  A    between atoms: C_9  and  C_10 
REMARK    6  A    between atoms: N_15  and  C_14 
REMARK    7  A    between atoms: N_20  and  C_19 
REMARK       I    between atoms: C_22  and  N_20 
ROOT
ATOM      1  C   LIG d   1      -3.631  91.925 117.190  0.00  0.00     0.161 C 
ATOM      2  C   LIG d   1      -2.876  93.008 117.671  0.00  0.00     0.016 C 
ATOM      3  C   LIG d   1      -3.283  93.820 118.755  0.00  0.00     0.038 C 
ATOM      4  C   LIG d   1      -4.408  93.509 119.533  0.00  0.00     0.028 C 
ATOM      5  C   LIG d   1      -5.471  92.723 118.773  0.00  0.00    -0.047 C 
ATOM      6  C   LIG d   1      -4.806  91.503 118.097  0.00  0.00     0.091 C 
ENDROOT
BRANCH   1   7
ATOM      7  O   LIG d   1      -2.765  90.801 116.936  0.00  0.00    -0.368 OA
BRANCH   7   8
ATOM      8  C   LIG d   1      -1.579  90.709 117.763  0.00  0.00     0.119 C 
BRANCH   8   9
ATOM      9  C   LIG d   1      -0.381  90.456 116.828  0.00  0.00     0.028 C 
ATOM     10  C   LIG d   1       0.784  91.425 117.092  0.00  0.00     0.006 C 
ENDBRANCH   8   9
BRANCH   8  11
ATOM     11  C   LIG d   1      -1.638  89.489 118.687  0.00  0.00     0.028 C 
ATOM     12  C   LIG d   1      -1.107  89.785 120.099  0.00  0.00     0.006 C 
ENDBRANCH   8  11
ENDBRANCH   7   8
ENDBRANCH   1   7
BRANCH   6  13
ATOM     13  N   LIG d   1      -5.760  90.726 117.264  0.00  0.00    -0.311 N 
ATOM     14  C   LIG d   1      -6.292  91.189 116.134  0.00  0.00     0.210 C 
ATOM     15  C   LIG d   1      -7.268  90.234 115.440  0.00  0.00     0.109 C 
ATOM     16  O   LIG d   1      -6.023  92.287 115.624  0.00  0.00    -0.276 OA
ATOM     17  H   LIG d   1      -6.009  89.812 117.587  0.00  0.00     0.149 HD
ENDBRANCH   6  13
BRANCH   5  18
ATOM     18  N   LIG d   1      -6.522  92.348 119.738  0.00  0.00     0.381 N 
ATOM     19  H   LIG d   1      -6.103  92.051 120.597  0.00  0.00    -0.090 HD
ATOM     20  H   LIG d   1      -7.049  91.579 119.362  0.00  0.00    -0.090 HD
ATOM     21  H   LIG d   1      -7.125  93.123 119.904  0.00  0.00    -0.090 HD
ENDBRANCH   5  18
BRANCH   3  22
ATOM     22  C   LIG d   1      -2.582  94.981 119.044  0.00  0.00     0.382 C 
ATOM     23  O   LIG d   1      -2.021  95.621 118.122  0.00  0.00    -0.241 OA
ATOM     24  O   LIG d   1      -2.468  95.373 120.221  0.00  0.00    -0.241 OA
ENDBRANCH   3  22
TORSDOF 7
ENDMDL
MODEL 5
REMARK VINA RESULT:      -5.0      2.415      3.733
REMARK  7 active torsions:
REMARK  status: ('A' for Active; 'I' for Inactive)
REMARK    1  A    between atoms: C_2  and  C_3 
REMARK    2  A    between atoms: C_3  and  O_6 
REMARK    3  A    between atoms: C_3  and  C_4 
REMARK    4  A    between atoms: C_7  and  O_6 
REMARK    5  A    between atoms: C_9  and  C_10 
REMARK    6  A    between atoms: N_15  and  C_14 
REMARK    7  A    between atoms: N_20  and  C_19 
REMARK       I    between atoms: C_22  and  N_20 
ROOT
ATOM      1  C   LIG d   1      -4.893  92.190 119.632  0.00  0.00     0.161 C 
ATOM      2  C   LIG d   1      -6.289  92.354 119.625  0.00  0.00     0.016 C 
ATOM      3  C   LIG d   1      -6.924  93.608 119.478  0.00  0.00     0.038 C 
ATOM      4  C   LIG d   1      -6.204  94.773 119.175  0.00  0.00     0.028 C 
ATOM      5  C   LIG d   1      -4.763  94.741 119.674  0.00  0.00    -0.047 C 
ATOM      6  C   LIG d   1      -4.094  93.434 119.192  0.00  0.00     0.091 C 
ENDROOT
BRANCH   1   7
ATOM      7  O   LIG d   1      -4.531  91.050 118.827  0.00  0.00    -0.368 OA
BRANCH   7   8
ATOM      8  C   LIG d   1      -4.252  91.319 117.431  0.00  0.00     0.119 C 
BRANCH   8   9
ATOM      9  C   LIG d   1      -5.446  90.795 116.611  0.00  0.00     0.028 C 
ATOM     10  C   LIG d   1      -6.197  91.921 115.880  0.00  0.00     0.006 C 
ENDBRANCH   8   9
BRANCH   8  11
ATOM     11  C   LIG d   1      -3.041  90.521 116.941  0.00  0.00     0.028 C 
ATOM     12  C   LIG d   1      -2.388  89.685 118.053  0.00  0.00     0.006 C 
ENDBRANCH   8  11
ENDBRANCH   7   8
ENDBRANCH   1   7
BRANCH   6  13
ATOM     13  N   LIG d   1      -2.708  93.283 119.706  0.00  0.00    -0.311 N 
ATOM     14  C   LIG d   1      -1.624  93.412 118.943  0.00  0.00     0.210 C 
ATOM     15  C   LIG d   1      -0.292  93.197 119.669  0.00  0.00     0.109 C 
ATOM     16  O   LIG d   1      -1.638  93.715 117.740  0.00  0.00    -0.276 OA
ATOM     17  H   LIG d   1      -2.603  93.068 120.679  0.00  0.00     0.149 HD
ENDBRANCH   6  13
BRANCH   5  18
ATOM     18  N   LIG d   1      -4.090  95.954 119.171  0.00  0.00     0.381 N 
ATOM     19  H   LIG d   1      -4.704  96.740 119.254  0.00  0.00    -0.090 HD
ATOM     20  H   LIG d   1      -3.872  95.826 118.199  0.00  0.00    -0.090 HD
ATOM     21  H   LIG d   1      -3.255  96.120 119.688  0.00  0.00    -0.090 HD
ENDBRANCH   5  18
BRANCH   3  22
ATOM     22  C   LIG d   1      -8.293  93.712 119.675  0.00  0.00     0.382 C 
ATOM     23  O   LIG d   1      -8.884  92.889 120.414  0.00  0.00    -0.241 OA
ATOM     24  O   LIG d   1      -8.950  94.592 119.087  0.00  0.00    -0.241 OA
ENDBRANCH   3  22
TORSDOF 7
ENDMDL
MODEL 6
REMARK VINA RESULT:      -4.8      2.227      4.404
REMARK  7 active torsions:
REMARK  status: ('A' for Active; 'I' for Inactive)
REMARK    1  A    between atoms: C_2  and  C_3 
REMARK    2  A    between atoms: C_3  and  O_6 
REMARK    3  A    between atoms: C_3  and  C_4 
REMARK    4  A    between atoms: C_7  and  O_6 
REMARK    5  A    between atoms: C_9  and  C_10 
REMARK    6  A    between atoms: N_15  and  C_14 
REMARK    7  A    between atoms: N_20  and  C_19 
REMARK       I    between atoms: C_22  and  N_20 
ROOT
ATOM      1  C   LIG d   1      -4.102  92.527 117.852  0.00  0.00     0.161 C 
ATOM      2  C   LIG d   1      -5.304  92.125 117.247  0.00  0.00     0.016 C 
ATOM      3  C   LIG d   1      -5.435  90.939 116.487  0.00  0.00     0.038 C 
ATOM      4  C   LIG d   1      -4.402  89.993 116.407  0.00  0.00     0.028 C 
ATOM      5  C   LIG d   1      -3.012  90.597 116.581  0.00  0.00    -0.047 C 
ATOM      6  C   LIG d   1      -2.995  91.453 117.868  0.00  0.00     0.091 C 
ENDROOT
BRANCH   1   7
ATOM      7  O   LIG d   1      -4.362  92.999 119.189  0.00  0.00    -0.368 OA
BRANCH   7   8
ATOM      8  C   LIG d   1      -5.337  92.247 119.952  0.00  0.00     0.119 C 
BRANCH   8   9
ATOM      9  C   LIG d   1      -6.255  93.262 120.659  0.00  0.00     0.028 C 
ATOM     10  C   LIG d   1      -7.647  93.347 120.010  0.00  0.00     0.006 C 
ENDBRANCH   8   9
BRANCH   8  11
ATOM     11  C   LIG d   1      -4.669  91.451 121.078  0.00  0.00     0.028 C 
ATOM     12  C   LIG d   1      -5.625  91.151 122.243  0.00  0.00     0.006 C 
ENDBRANCH   8  11
ENDBRANCH   7   8
ENDBRANCH   1   7
BRANCH   6  13
ATOM     13  N   LIG d   1      -1.697  92.148 118.069  0.00  0.00    -0.311 N 
ATOM     14  C   LIG d   1      -0.702  91.646 118.799  0.00  0.00     0.210 C 
ATOM     15  C   LIG d   1       0.543  92.534 118.893  0.00  0.00     0.109 C 
ATOM     16  O   LIG d   1      -0.720  90.535 119.351  0.00  0.00    -0.276 OA
ATOM     17  H   LIG d   1      -1.585  93.041 117.631  0.00  0.00     0.149 HD
ENDBRANCH   6  13
BRANCH   5  18
ATOM     18  N   LIG d   1      -2.044  89.484 116.614  0.00  0.00     0.381 N 
ATOM     19  H   LIG d   1      -1.147  89.807 116.310  0.00  0.00    -0.090 HD
ATOM     20  H   LIG d   1      -2.352  88.767 115.981  0.00  0.00    -0.090 HD
ATOM     21  H   LIG d   1      -1.978  89.116 117.537  0.00  0.00    -0.090 HD
ENDBRANCH   5  18
BRANCH   3  22
ATOM     22  C   LIG d   1      -6.596  90.710 115.765  0.00  0.00     0.382 C 
ATOM     23  O   LIG d   1      -7.331  91.673 115.437  0.00  0.00    -0.241 OA
ATOM     24  O   LIG d   1      -6.940  89.549 115.474  0.00  0.00    -0.241 OA
ENDBRANCH   3  22
TORSDOF 7
ENDMDL
MODEL 7
REMARK VINA RESULT:      -4.8      2.610      5.166
REMARK  7 active torsions:
REMARK  status: ('A' for Active; 'I' for Inactive)
REMARK    1  A    between atoms: C_2  and  C_3 
REMARK    2  A    between atoms: C_3  and  O_6 
REMARK    3  A    between atoms: C_3  and  C_4 
REMARK    4  A    between atoms: C_7  and  O_6 
REMARK    5  A    between atoms: C_9  and  C_10 
REMARK    6  A    between atoms: N_15  and  C_14 
REMARK    7  A    between atoms: N_20  and  C_19 
REMARK       I    between atoms: C_22  and  N_20 
ROOT
ATOM      1  C   LIG d   1      -5.508  93.109 118.609  0.00  0.00     0.161 C 
ATOM      2  C   LIG d   1      -6.090  92.084 117.845  0.00  0.00     0.016 C 
ATOM      3  C   LIG d   1      -5.355  91.251 116.971  0.00  0.00     0.038 C 
ATOM      4  C   LIG d   1      -3.954  91.288 116.915  0.00  0.00     0.028 C 
ATOM      5  C   LIG d   1      -3.368  92.644 117.291  0.00  0.00    -0.047 C 
ATOM      6  C   LIG d   1      -3.965  93.091 118.645  0.00  0.00     0.091 C 
ENDROOT
BRANCH   1   7
ATOM      7  O   LIG d   1      -6.041  93.084 119.947  0.00  0.00    -0.368 OA
BRANCH   7   8
ATOM      8  C   LIG d   1      -6.954  94.156 120.290  0.00  0.00     0.119 C 
BRANCH   8   9
ATOM      9  C   LIG d   1      -8.376  93.563 120.316  0.00  0.00     0.028 C 
ATOM     10  C   LIG d   1      -8.941  93.457 121.742  0.00  0.00     0.006 C 
ENDBRANCH   8   9
BRANCH   8  11
ATOM     11  C   LIG d   1      -6.983  95.232 119.201  0.00  0.00     0.028 C 
ATOM     12  C   LIG d   1      -8.380  95.424 118.590  0.00  0.00     0.006 C 
ENDBRANCH   8  11
ENDBRANCH   7   8
ENDBRANCH   1   7
BRANCH   6  13
ATOM     13  N   LIG d   1      -3.509  94.448 119.046  0.00  0.00    -0.311 N 
ATOM     14  C   LIG d   1      -2.457  94.664 119.834  0.00  0.00     0.210 C 
ATOM     15  C   LIG d   1      -2.171  96.138 120.140  0.00  0.00     0.109 C 
ATOM     16  O   LIG d   1      -1.715  93.778 120.282  0.00  0.00    -0.276 OA
ATOM     17  H   LIG d   1      -4.036  95.226 118.702  0.00  0.00     0.149 HD
ENDBRANCH   6  13
BRANCH   5  18
ATOM     18  N   LIG d   1      -1.900  92.502 117.326  0.00  0.00     0.381 N 
ATOM     19  H   LIG d   1      -1.480  93.173 116.714  0.00  0.00    -0.090 HD
ATOM     20  H   LIG d   1      -1.655  91.583 117.001  0.00  0.00    -0.090 HD
ATOM     21  H   LIG d   1      -1.566  92.635 118.255  0.00  0.00    -0.090 HD
ENDBRANCH   5  18
BRANCH   3  22
ATOM     22  C   LIG d   1      -6.026  90.395 116.110  0.00  0.00     0.382 C 
ATOM     23  O   LIG d   1      -5.407  89.460 115.547  0.00  0.00    -0.241 OA
ATOM     24  O   LIG d   1      -7.232  90.573 115.855  0.00  0.00    -0.241 OA
ENDBRANCH   3  22
TORSDOF 7
ENDMDL
MODEL 8
REMARK VINA RESULT:      -4.6      2.707      4.151
REMARK  7 active torsions:
REMARK  status: ('A' for Active; 'I' for Inactive)
REMARK    1  A    between atoms: C_2  and  C_3 
REMARK    2  A    between atoms: C_3  and  O_6 
REMARK    3  A    between atoms: C_3  and  C_4 
REMARK    4  A    between atoms: C_7  and  O_6 
REMARK    5  A    between atoms: C_9  and  C_10 
REMARK    6  A    between atoms: N_15  and  C_14 
REMARK    7  A    between atoms: N_20  and  C_19 
REMARK       I    between atoms: C_22  and  N_20 
ROOT
ATOM      1  C   LIG d   1      -3.430  92.758 118.962  0.00  0.00     0.161 C 
ATOM      2  C   LIG d   1      -4.629  93.428 119.256  0.00  0.00     0.016 C 
ATOM      3  C   LIG d   1      -5.821  93.251 118.516  0.00  0.00     0.038 C 
ATOM      4  C   LIG d   1      -5.935  92.273 117.518  0.00  0.00     0.028 C 
ATOM      5  C   LIG d   1      -4.608  91.928 116.852  0.00  0.00    -0.047 C 
ATOM      6  C   LIG d   1      -3.566  91.604 117.947  0.00  0.00     0.091 C 
ENDROOT
BRANCH   1   7
ATOM      7  O   LIG d   1      -2.823  92.284 120.181  0.00  0.00    -0.368 OA
BRANCH   7   8
ATOM      8  C   LIG d   1      -3.313  91.017 120.686  0.00  0.00     0.119 C 
BRANCH   8   9
ATOM      9  C   LIG d   1      -3.954  91.284 122.061  0.00  0.00     0.028 C 
ATOM     10  C   LIG d   1      -5.490  91.214 122.016  0.00  0.00     0.006 C 
ENDBRANCH   8   9
BRANCH   8  11
ATOM     11  C   LIG d   1      -2.162  90.044 120.957  0.00  0.00     0.028 C 
ATOM     12  C   LIG d   1      -0.780  90.676 120.730  0.00  0.00     0.006 C 
ENDBRANCH   8  11
ENDBRANCH   7   8
ENDBRANCH   1   7
BRANCH   6  13
ATOM     13  N   LIG d   1      -2.216  91.338 117.384  0.00  0.00    -0.311 N 
ATOM     14  C   LIG d   1      -1.733  90.113 117.186  0.00  0.00     0.210 C 
ATOM     15  C   LIG d   1      -0.312  90.062 116.616  0.00  0.00     0.109 C 
ATOM     16  O   LIG d   1      -2.359  89.063 117.398  0.00  0.00    -0.276 OA
ATOM     17  H   LIG d   1      -1.653  92.133 117.155  0.00  0.00     0.149 HD
ENDBRANCH   6  13
BRANCH   5  18
ATOM     18  N   LIG d   1      -4.850  90.801 115.932  0.00  0.00     0.381 N 
ATOM     19  H   LIG d   1      -4.543  91.043 115.011  0.00  0.00    -0.090 HD
ATOM     20  H   LIG d   1      -5.837  90.615 115.897  0.00  0.00    -0.090 HD
ATOM     21  H   LIG d   1      -4.363  89.991 116.249  0.00  0.00    -0.090 HD
ENDBRANCH   5  18
BRANCH   3  22
ATOM     22  C   LIG d   1      -6.903  94.088 118.745  0.00  0.00     0.382 C 
ATOM     23  O   LIG d   1      -7.108  94.546 119.895  0.00  0.00    -0.241 OA
ATOM     24  O   LIG d   1      -7.701  94.354 117.827  0.00  0.00    -0.241 OA
ENDBRANCH   3  22
TORSDOF 7
ENDMDL
MODEL 9
REMARK VINA RESULT:      -4.6      2.202      4.244
REMARK  7 active torsions:
REMARK  status: ('A' for Active; 'I' for Inactive)
REMARK    1  A    between atoms: C_2  and  C_3 
REMARK    2  A    between atoms: C_3  and  O_6 
REMARK    3  A    between atoms: C_3  and  C_4 
REMARK    4  A    between atoms: C_7  and  O_6 
REMARK    5  A    between atoms: C_9  and  C_10 
REMARK    6  A    between atoms: N_15  and  C_14 
REMARK    7  A    between atoms: N_20  and  C_19 
REMARK       I    between atoms: C_22  and  N_20 
ROOT
ATOM      1  C   LIG d   1      -2.317  92.823 117.698  0.00  0.00     0.161 C 
ATOM      2  C   LIG d   1      -3.712  92.980 117.743  0.00  0.00     0.016 C 
ATOM      3  C   LIG d   1      -4.623  91.944 117.432  0.00  0.00     0.038 C 
ATOM      4  C   LIG d   1      -4.197  90.628 117.201  0.00  0.00     0.028 C 
ATOM      5  C   LIG d   1      -2.778  90.538 116.650  0.00  0.00    -0.047 C 
ATOM      6  C   LIG d   1      -1.835  91.364 117.556  0.00  0.00     0.091 C 
ENDROOT
BRANCH   1   7
ATOM      7  O   LIG d   1      -1.719  93.437 118.857  0.00  0.00    -0.368 OA
BRANCH   7   8
ATOM      8  C   LIG d   1      -2.560  93.535 120.032  0.00  0.00     0.119 C 
BRANCH   8   9
ATOM      9  C   LIG d   1      -2.249  94.882 120.713  0.00  0.00     0.028 C 
ATOM     10  C   LIG d   1      -3.150  95.146 121.931  0.00  0.00     0.006 C 
ENDBRANCH   8   9
BRANCH   8  11
ATOM     11  C   LIG d   1      -2.199  92.465 121.067  0.00  0.00     0.028 C 
ATOM     12  C   LIG d   1      -3.185  91.286 121.074  0.00  0.00     0.006 C 
ENDBRANCH   8  11
ENDBRANCH   7   8
ENDBRANCH   1   7
BRANCH   6  13
ATOM     13  N   LIG d   1      -0.442  91.399 117.041  0.00  0.00    -0.311 N 
ATOM     14  C   LIG d   1       0.509  90.557 117.442  0.00  0.00     0.210 C 
ATOM     15  C   LIG d   1       1.882  90.779 116.800  0.00  0.00     0.109 C 
ATOM     16  O   LIG d   1       0.338  89.627 118.245  0.00  0.00    -0.276 OA
ATOM     17  H   LIG d   1      -0.223  92.102 116.363  0.00  0.00     0.149 HD
ENDBRANCH   6  13
BRANCH   5  18
ATOM     18  N   LIG d   1      -2.414  89.110 116.586  0.00  0.00     0.381 N 
ATOM     19  H   LIG d   1      -2.760  88.710 115.737  0.00  0.00    -0.090 HD
ATOM     20  H   LIG d   1      -2.842  88.631 117.358  0.00  0.00    -0.090 HD
ATOM     21  H   LIG d   1      -1.424  89.008 116.630  0.00  0.00    -0.090 HD
ENDBRANCH   5  18
BRANCH   3  22
ATOM     22  C   LIG d   1      -5.974  92.230 117.312  0.00  0.00     0.382 C 
ATOM     23  O   LIG d   1      -6.563  92.871 118.216  0.00  0.00    -0.241 OA
ATOM     24  O   LIG d   1      -6.623  91.817 116.332  0.00  0.00    -0.241 OA
ENDBRANCH   3  22
TORSDOF 7
ENDMDL
