MODEL 1
REMARK VINA RESULT:      -5.1      0.000      0.000
REMARK  7 active torsions:
REMARK  status: ('A' for Active; 'I' for Inactive)
REMARK    1  A    between atoms: C_2  and  C_3 
REMARK    2  A    between atoms: C_3  and  O_6 
REMARK    3  A    between atoms: C_3  and  C_4 
REMARK    4  A    between atoms: C_7  and  O_6 
REMARK    5  A    between atoms: C_9  and  C_10 
REMARK    6  A    between atoms: N_15  and  C_14 
REMARK    7  A    between atoms: N_20  and  C_19 
REMARK       I    between atoms: C_22  and  N_20 
ROOT
ATOM      1  C   LIG d   1      -5.841  92.042 119.042  0.00  0.00     0.161 C 
ATOM      2  C   LIG d   1      -5.869  91.113 117.989  0.00  0.00     0.016 C 
ATOM      3  C   LIG d   1      -6.771  91.194 116.903  0.00  0.00     0.038 C 
ATOM      4  C   LIG d   1      -7.611  92.302 116.719  0.00  0.00     0.028 C 
ATOM      5  C   LIG d   1      -7.972  93.011 118.020  0.00  0.00    -0.047 C 
ATOM      6  C   LIG d   1      -6.674  93.318 118.802  0.00  0.00     0.091 C 
ENDROOT
BRANCH   1   7
ATOM      7  O   LIG d   1      -4.476  92.386 119.353  0.00  0.00    -0.368 OA
BRANCH   7   8
ATOM      8  C   LIG d   1      -3.454  91.652 118.636  0.00  0.00     0.119 C 
BRANCH   8   9
ATOM      9  C   LIG d   1      -2.728  90.752 119.655  0.00  0.00     0.028 C 
ATOM     10  C   LIG d   1      -2.754  89.268 119.251  0.00  0.00     0.006 C 
ENDBRANCH   8   9
BRANCH   8  11
ATOM     11  C   LIG d   1      -2.377  92.591 118.085  0.00  0.00     0.028 C 
ATOM     12  C   LIG d   1      -2.366  93.960 118.783  0.00  0.00     0.006 C 
ENDBRANCH   8  11
ENDBRANCH   7   8
ENDBRANCH   1   7
BRANCH   6  13
ATOM     13  N   LIG d   1      -6.942  93.936 120.126  0.00  0.00    -0.311 N 
ATOM     14  C   LIG d   1      -6.962  95.252 120.331  0.00  0.00     0.210 C 
ATOM     15  C   LIG d   1      -7.238  95.677 121.776  0.00  0.00     0.109 C 
ATOM     16  O   LIG d   1      -6.808  96.107 119.446  0.00  0.00    -0.276 OA
ATOM     17  H   LIG d   1      -7.109  93.315 120.894  0.00  0.00     0.149 HD
ENDBRANCH   6  13
BRANCH   5  18
ATOM     18  N   LIG d   1      -8.736  94.224 117.670  0.00  0.00     0.381 N 
ATOM     19  H   LIG d   1      -8.296  95.028 118.070  0.00  0.00    -0.090 HD
ATOM     20  H   LIG d   1      -9.662  94.147 118.053  0.00  0.00    -0.090 HD
ATOM     21  H   LIG d   1      -8.786  94.321 116.680  0.00  0.00    -0.090 HD
ENDBRANCH   5  18
BRANCH   3  22
ATOM     22  C   LIG d   1      -6.867  90.139 116.008  0.00  0.00     0.382 C 
ATOM     23  O   LIG d   1      -7.991  89.664 115.718  0.00  0.00    -0.241 OA
ATOM     24  O   LIG d   1      -5.840  89.628 115.522  0.00  0.00    -0.241 OA
ENDBRANCH   3  22
TORSDOF 7
ENDMDL
MODEL 2
REMARK VINA RESULT:      -4.8      0.996      1.633
REMARK  7 active torsions:
REMARK  status: ('A' for Active; 'I' for Inactive)
REMARK    1  A    between atoms: C_2  and  C_3 
REMARK    2  A    between atoms: C_3  and  O_6 
REMARK    3  A    between atoms: C_3  and  C_4 
REMARK    4  A    between atoms: C_7  and  O_6 
REMARK    5  A    between atoms: C_9  and  C_10 
REMARK    6  A    between atoms: N_15  and  C_14 
REMARK    7  A    between atoms: N_20  and  C_19 
REMARK       I    between atoms: C_22  and  N_20 
ROOT
ATOM      1  C   LIG d   1      -5.755  91.856 118.949  0.00  0.00     0.161 C 
ATOM      2  C   LIG d   1      -5.985  91.024 117.840  0.00  0.00     0.016 C 
ATOM      3  C   LIG d   1      -6.977  91.282 116.866  0.00  0.00     0.038 C 
ATOM      4  C   LIG d   1      -7.711  92.478 116.854  0.00  0.00     0.028 C 
ATOM      5  C   LIG d   1      -7.865  93.108 118.235  0.00  0.00    -0.047 C 
ATOM      6  C   LIG d   1      -6.470  93.222 118.892  0.00  0.00     0.091 C 
ENDROOT
BRANCH   1   7
ATOM      7  O   LIG d   1      -4.338  92.040 119.136  0.00  0.00    -0.368 OA
BRANCH   7   8
ATOM      8  C   LIG d   1      -3.600  90.882 119.598  0.00  0.00     0.119 C 
BRANCH   8   9
ATOM      9  C   LIG d   1      -2.853  91.291 120.882  0.00  0.00     0.028 C 
ATOM     10  C   LIG d   1      -3.060  92.774 121.234  0.00  0.00     0.006 C 
ENDBRANCH   8   9
BRANCH   8  11
ATOM     11  C   LIG d   1      -2.507  90.483 118.603  0.00  0.00     0.028 C 
ATOM     12  C   LIG d   1      -2.490  88.974 118.309  0.00  0.00     0.006 C 
ENDBRANCH   8  11
ENDBRANCH   7   8
ENDBRANCH   1   7
BRANCH   6  13
ATOM     13  N   LIG d   1      -6.539  93.751 120.279  0.00  0.00    -0.311 N 
ATOM     14  C   LIG d   1      -6.378  95.038 120.582  0.00  0.00     0.210 C 
ATOM     15  C   LIG d   1      -6.468  95.367 122.075  0.00  0.00     0.109 C 
ATOM     16  O   LIG d   1      -6.201  95.943 119.752  0.00  0.00    -0.276 OA
ATOM     17  H   LIG d   1      -6.710  93.090 121.012  0.00  0.00     0.149 HD
ENDBRANCH   6  13
BRANCH   5  18
ATOM     18  N   LIG d   1      -8.529  94.413 118.057  0.00  0.00     0.381 N 
ATOM     19  H   LIG d   1      -7.886  95.069 117.660  0.00  0.00    -0.090 HD
ATOM     20  H   LIG d   1      -8.814  94.757 118.957  0.00  0.00    -0.090 HD
ATOM     21  H   LIG d   1      -9.323  94.314 117.464  0.00  0.00    -0.090 HD
ENDBRANCH   5  18
BRANCH   3  22
ATOM     22  C   LIG d   1      -7.271  90.319 115.913  0.00  0.00     0.382 C 
ATOM     23  O   LIG d   1      -8.427  90.247 115.431  0.00  0.00    -0.241 OA
ATOM     24  O   LIG d   1      -6.408  89.493 115.562  0.00  0.00    -0.241 OA
ENDBRANCH   3  22
TORSDOF 7
ENDMDL
MODEL 3
REMARK VINA RESULT:      -4.8      2.780      4.732
REMARK  7 active torsions:
REMARK  status: ('A' for Active; 'I' for Inactive)
REMARK    1  A    between atoms: C_2  and  C_3 
REMARK    2  A    between atoms: C_3  and  O_6 
REMARK    3  A    between atoms: C_3  and  C_4 
REMARK    4  A    between atoms: C_7  and  O_6 
REMARK    5  A    between atoms: C_9  and  C_10 
REMARK    6  A    between atoms: N_15  and  C_14 
REMARK    7  A    between atoms: N_20  and  C_19 
REMARK       I    between atoms: C_22  and  N_20 
ROOT
ATOM      1  C   LIG d   1      -4.714  91.815 118.788  0.00  0.00     0.161 C 
ATOM      2  C   LIG d   1      -5.921  92.516 118.951  0.00  0.00     0.016 C 
ATOM      3  C   LIG d   1      -6.998  92.433 118.038  0.00  0.00     0.038 C 
ATOM      4  C   LIG d   1      -6.998  91.520 116.973  0.00  0.00     0.028 C 
ATOM      5  C   LIG d   1      -5.600  91.160 116.483  0.00  0.00    -0.047 C 
ATOM      6  C   LIG d   1      -4.739  90.730 117.692  0.00  0.00     0.091 C 
ENDROOT
BRANCH   1   7
ATOM      7  O   LIG d   1      -4.306  91.246 120.048  0.00  0.00    -0.368 OA
BRANCH   7   8
ATOM      8  C   LIG d   1      -3.154  91.856 120.680  0.00  0.00     0.119 C 
BRANCH   8   9
ATOM      9  C   LIG d   1      -3.660  92.648 121.901  0.00  0.00     0.028 C 
ATOM     10  C   LIG d   1      -3.524  94.168 121.713  0.00  0.00     0.006 C 
ENDBRANCH   8   9
BRANCH   8  11
ATOM     11  C   LIG d   1      -2.502  92.896 119.764  0.00  0.00     0.028 C 
ATOM     12  C   LIG d   1      -1.060  92.529 119.377  0.00  0.00     0.006 C 
ENDBRANCH   8  11
ENDBRANCH   7   8
ENDBRANCH   1   7
BRANCH   6  13
ATOM     13  N   LIG d   1      -3.331  90.442 117.313  0.00  0.00    -0.311 N 
ATOM     14  C   LIG d   1      -2.621  89.442 117.833  0.00  0.00     0.210 C 
ATOM     15  C   LIG d   1      -1.183  89.334 117.318  0.00  0.00     0.109 C 
ATOM     16  O   LIG d   1      -3.056  88.615 118.649  0.00  0.00    -0.276 OA
ATOM     17  H   LIG d   1      -2.910  91.044 116.633  0.00  0.00     0.149 HD
ENDBRANCH   6  13
BRANCH   5  18
ATOM     18  N   LIG d   1      -5.742  90.100 115.468  0.00  0.00     0.381 N 
ATOM     19  H   LIG d   1      -6.036  90.500 114.599  0.00  0.00    -0.090 HD
ATOM     20  H   LIG d   1      -6.448  89.452 115.771  0.00  0.00    -0.090 HD
ATOM     21  H   LIG d   1      -4.875  89.624 115.347  0.00  0.00    -0.090 HD
ENDBRANCH   5  18
BRANCH   3  22
ATOM     22  C   LIG d   1      -8.074  93.298 118.164  0.00  0.00     0.382 C 
ATOM     23  O   LIG d   1      -8.371  93.769 119.289  0.00  0.00    -0.241 OA
ATOM     24  O   LIG d   1      -8.777  93.580 117.176  0.00  0.00    -0.241 OA
ENDBRANCH   3  22
TORSDOF 7
ENDMDL
MODEL 4
REMARK VINA RESULT:      -4.7      1.950      2.824
REMARK  7 active torsions:
REMARK  status: ('A' for Active; 'I' for Inactive)
REMARK    1  A    between atoms: C_2  and  C_3 
REMARK    2  A    between atoms: C_3  and  O_6 
REMARK    3  A    between atoms: C_3  and  C_4 
REMARK    4  A    between atoms: C_7  and  O_6 
REMARK    5  A    between atoms: C_9  and  C_10 
REMARK    6  A    between atoms: N_15  and  C_14 
REMARK    7  A    between atoms: N_20  and  C_19 
REMARK       I    between atoms: C_22  and  N_20 
ROOT
ATOM      1  C   LIG d   1      -4.446  91.377 118.577  0.00  0.00     0.161 C 
ATOM      2  C   LIG d   1      -5.210  90.898 117.500  0.00  0.00     0.016 C 
ATOM      3  C   LIG d   1      -6.506  91.373 117.193  0.00  0.00     0.038 C 
ATOM      4  C   LIG d   1      -7.070  92.472 117.858  0.00  0.00     0.028 C 
ATOM      5  C   LIG d   1      -6.545  92.656 119.277  0.00  0.00    -0.047 C 
ATOM      6  C   LIG d   1      -4.999  92.654 119.245  0.00  0.00     0.091 C 
ENDROOT
BRANCH   1   7
ATOM      7  O   LIG d   1      -3.083  91.582 118.157  0.00  0.00    -0.368 OA
BRANCH   7   8
ATOM      8  C   LIG d   1      -2.109  90.639 118.670  0.00  0.00     0.119 C 
BRANCH   8   9
ATOM      9  C   LIG d   1      -1.857  89.590 117.570  0.00  0.00     0.028 C 
ATOM     10  C   LIG d   1      -0.419  89.645 117.025  0.00  0.00     0.006 C 
ENDBRANCH   8   9
BRANCH   8  11
ATOM     11  C   LIG d   1      -2.668  89.853 119.859  0.00  0.00     0.028 C 
ATOM     12  C   LIG d   1      -2.669  88.335 119.622  0.00  0.00     0.006 C 
ENDBRANCH   8  11
ENDBRANCH   7   8
ENDBRANCH   1   7
BRANCH   6  13
ATOM     13  N   LIG d   1      -4.404  92.744 120.604  0.00  0.00    -0.311 N 
ATOM     14  C   LIG d   1      -3.398  93.562 120.910  0.00  0.00     0.210 C 
ATOM     15  C   LIG d   1      -2.921  93.484 122.364  0.00  0.00     0.109 C 
ATOM     16  O   LIG d   1      -2.877  94.368 120.124  0.00  0.00    -0.276 OA
ATOM     17  H   LIG d   1      -4.787  92.148 121.310  0.00  0.00     0.149 HD
ENDBRANCH   6  13
BRANCH   5  18
ATOM     18  N   LIG d   1      -7.110  93.914 119.802  0.00  0.00     0.381 N 
ATOM     19  H   LIG d   1      -6.708  94.119 120.695  0.00  0.00    -0.090 HD
ATOM     20  H   LIG d   1      -8.101  93.800 119.920  0.00  0.00    -0.090 HD
ATOM     21  H   LIG d   1      -6.927  94.661 119.168  0.00  0.00    -0.090 HD
ENDBRANCH   5  18
BRANCH   3  22
ATOM     22  C   LIG d   1      -7.269  90.719 116.238  0.00  0.00     0.382 C 
ATOM     23  O   LIG d   1      -7.966  91.381 115.431  0.00  0.00    -0.241 OA
ATOM     24  O   LIG d   1      -7.305  89.474 116.201  0.00  0.00    -0.241 OA
ENDBRANCH   3  22
TORSDOF 7
ENDMDL
MODEL 5
REMARK VINA RESULT:      -4.5      3.428      6.275
REMARK  7 active torsions:
REMARK  status: ('A' for Active; 'I' for Inactive)
REMARK    1  A    between atoms: C_2  and  C_3 
REMARK    2  A    between atoms: C_3  and  O_6 
REMARK    3  A    between atoms: C_3  and  C_4 
REMARK    4  A    between atoms: C_7  and  O_6 
REMARK    5  A    between atoms: C_9  and  C_10 
REMARK    6  A    between atoms: N_15  and  C_14 
REMARK    7  A    between atoms: N_20  and  C_19 
REMARK       I    between atoms: C_22  and  N_20 
ROOT
ATOM      1  C   LIG d   1      -1.524  90.824 117.995  0.00  0.00     0.161 C 
ATOM      2  C   LIG d   1      -0.289  91.107 118.601  0.00  0.00     0.016 C 
ATOM      3  C   LIG d   1       0.015  92.349 119.206  0.00  0.00     0.038 C 
ATOM      4  C   LIG d   1      -0.957  93.346 119.380  0.00  0.00     0.028 C 
ATOM      5  C   LIG d   1      -2.068  93.297 118.338  0.00  0.00    -0.047 C 
ATOM      6  C   LIG d   1      -2.633  91.860 118.273  0.00  0.00     0.091 C 
ENDROOT
BRANCH   1   7
ATOM      7  O   LIG d   1      -1.963  89.505 118.374  0.00  0.00    -0.368 OA
BRANCH   7   8
ATOM      8  C   LIG d   1      -1.330  88.935 119.546  0.00  0.00     0.119 C 
BRANCH   8   9
ATOM      9  C   LIG d   1      -1.014  87.460 119.231  0.00  0.00     0.028 C 
ATOM     10  C   LIG d   1      -1.743  86.489 120.174  0.00  0.00     0.006 C 
ENDBRANCH   8   9
BRANCH   8  11
ATOM     11  C   LIG d   1      -2.294  88.897 120.737  0.00  0.00     0.028 C 
ATOM     12  C   LIG d   1      -2.088  90.071 121.707  0.00  0.00     0.006 C 
ENDBRANCH   8  11
ENDBRANCH   7   8
ENDBRANCH   1   7
BRANCH   6  13
ATOM     13  N   LIG d   1      -3.668  91.704 117.218  0.00  0.00    -0.311 N 
ATOM     14  C   LIG d   1      -4.821  91.065 117.410  0.00  0.00     0.210 C 
ATOM     15  C   LIG d   1      -5.738  91.003 116.184  0.00  0.00     0.109 C 
ATOM     16  O   LIG d   1      -5.185  90.572 118.488  0.00  0.00    -0.276 OA
ATOM     17  H   LIG d   1      -3.468  92.102 116.321  0.00  0.00     0.149 HD
ENDBRANCH   6  13
BRANCH   5  18
ATOM     18  N   LIG d   1      -3.081  94.300 118.718  0.00  0.00     0.381 N 
ATOM     19  H   LIG d   1      -3.241  94.262 119.705  0.00  0.00    -0.090 HD
ATOM     20  H   LIG d   1      -3.944  94.084 118.251  0.00  0.00    -0.090 HD
ATOM     21  H   LIG d   1      -2.773  95.211 118.459  0.00  0.00    -0.090 HD
ENDBRANCH   5  18
BRANCH   3  22
ATOM     22  C   LIG d   1       1.314  92.617 119.609  0.00  0.00     0.382 C 
ATOM     23  O   LIG d   1       2.280  92.239 118.904  0.00  0.00    -0.241 OA
ATOM     24  O   LIG d   1       1.533  93.194 120.691  0.00  0.00    -0.241 OA
ENDBRANCH   3  22
TORSDOF 7
ENDMDL
MODEL 6
REMARK VINA RESULT:      -4.5      2.536      4.625
REMARK  7 active torsions:
REMARK  status: ('A' for Active; 'I' for Inactive)
REMARK    1  A    between atoms: C_2  and  C_3 
REMARK    2  A    between atoms: C_3  and  O_6 
REMARK    3  A    between atoms: C_3  and  C_4 
REMARK    4  A    between atoms: C_7  and  O_6 
REMARK    5  A    between atoms: C_9  and  C_10 
REMARK    6  A    between atoms: N_15  and  C_14 
REMARK    7  A    between atoms: N_20  and  C_19 
REMARK       I    between atoms: C_22  and  N_20 
ROOT
ATOM      1  C   LIG d   1      -5.493  91.980 118.993  0.00  0.00     0.161 C 
ATOM      2  C   LIG d   1      -6.507  91.814 118.035  0.00  0.00     0.016 C 
ATOM      3  C   LIG d   1      -6.339  91.069 116.844  0.00  0.00     0.038 C 
ATOM      4  C   LIG d   1      -5.185  90.309 116.602  0.00  0.00     0.028 C 
ATOM      5  C   LIG d   1      -3.944  90.852 117.302  0.00  0.00    -0.047 C 
ATOM      6  C   LIG d   1      -4.264  91.066 118.799  0.00  0.00     0.091 C 
ENDROOT
BRANCH   1   7
ATOM      7  O   LIG d   1      -6.038  91.811 120.316  0.00  0.00    -0.368 OA
BRANCH   7   8
ATOM      8  C   LIG d   1      -6.217  93.023 121.090  0.00  0.00     0.119 C 
BRANCH   8   9
ATOM      9  C   LIG d   1      -7.726  93.338 121.115  0.00  0.00     0.028 C 
ATOM     10  C   LIG d   1      -8.082  94.568 120.264  0.00  0.00     0.006 C 
ENDBRANCH   8   9
BRANCH   8  11
ATOM     11  C   LIG d   1      -5.563  94.225 120.403  0.00  0.00     0.028 C 
ATOM     12  C   LIG d   1      -4.421  94.836 121.231  0.00  0.00     0.006 C 
ENDBRANCH   8  11
ENDBRANCH   7   8
ENDBRANCH   1   7
BRANCH   6  13
ATOM     13  N   LIG d   1      -3.129  91.674 119.540  0.00  0.00    -0.311 N 
ATOM     14  C   LIG d   1      -2.160  90.961 120.111  0.00  0.00     0.210 C 
ATOM     15  C   LIG d   1      -1.096  91.786 120.843  0.00  0.00     0.109 C 
ATOM     16  O   LIG d   1      -2.063  89.726 120.053  0.00  0.00    -0.276 OA
ATOM     17  H   LIG d   1      -3.113  92.673 119.609  0.00  0.00     0.149 HD
ENDBRANCH   6  13
BRANCH   5  18
ATOM     18  N   LIG d   1      -2.849  89.889 117.077  0.00  0.00     0.381 N 
ATOM     19  H   LIG d   1      -3.099  89.256 116.344  0.00  0.00    -0.090 HD
ATOM     20  H   LIG d   1      -2.705  89.358 117.917  0.00  0.00    -0.090 HD
ATOM     21  H   LIG d   1      -2.013  90.374 116.835  0.00  0.00    -0.090 HD
ENDBRANCH   5  18
BRANCH   3  22
ATOM     22  C   LIG d   1      -7.317  91.113 115.863  0.00  0.00     0.382 C 
ATOM     23  O   LIG d   1      -7.727  92.219 115.435  0.00  0.00    -0.241 OA
ATOM     24  O   LIG d   1      -7.826  90.062 115.431  0.00  0.00    -0.241 OA
ENDBRANCH   3  22
TORSDOF 7
ENDMDL
MODEL 7
REMARK VINA RESULT:      -4.4      2.808      5.900
REMARK  7 active torsions:
REMARK  status: ('A' for Active; 'I' for Inactive)
REMARK    1  A    between atoms: C_2  and  C_3 
REMARK    2  A    between atoms: C_3  and  O_6 
REMARK    3  A    between atoms: C_3  and  C_4 
REMARK    4  A    between atoms: C_7  and  O_6 
REMARK    5  A    between atoms: C_9  and  C_10 
REMARK    6  A    between atoms: N_15  and  C_14 
REMARK    7  A    between atoms: N_20  and  C_19 
REMARK       I    between atoms: C_22  and  N_20 
ROOT
ATOM      1  C   LIG d   1      -1.808  92.254 118.556  0.00  0.00     0.161 C 
ATOM      2  C   LIG d   1      -1.102  93.010 119.507  0.00  0.00     0.016 C 
ATOM      3  C   LIG d   1      -1.719  93.932 120.382  0.00  0.00     0.038 C 
ATOM      4  C   LIG d   1      -3.114  94.052 120.470  0.00  0.00     0.028 C 
ATOM      5  C   LIG d   1      -3.836  93.678 119.180  0.00  0.00    -0.047 C 
ATOM      6  C   LIG d   1      -3.343  92.289 118.713  0.00  0.00     0.091 C 
ENDROOT
BRANCH   1   7
ATOM      7  O   LIG d   1      -1.335  90.893 118.564  0.00  0.00    -0.368 OA
BRANCH   7   8
ATOM      8  C   LIG d   1      -1.895  90.029 119.584  0.00  0.00     0.119 C 
BRANCH   8   9
ATOM      9  C   LIG d   1      -0.736  89.570 120.490  0.00  0.00     0.028 C 
ATOM     10  C   LIG d   1       0.628  89.655 119.785  0.00  0.00     0.006 C 
ENDBRANCH   8   9
BRANCH   8  11
ATOM     11  C   LIG d   1      -2.467  88.746 118.975  0.00  0.00     0.028 C 
ATOM     12  C   LIG d   1      -2.298  88.684 117.449  0.00  0.00     0.006 C 
ENDBRANCH   8  11
ENDBRANCH   7   8
ENDBRANCH   1   7
BRANCH   6  13
ATOM     13  N   LIG d   1      -3.938  91.884 117.413  0.00  0.00    -0.311 N 
ATOM     14  C   LIG d   1      -5.019  91.113 117.310  0.00  0.00     0.210 C 
ATOM     15  C   LIG d   1      -5.454  90.799 115.875  0.00  0.00     0.109 C 
ATOM     16  O   LIG d   1      -5.677  90.687 118.270  0.00  0.00    -0.276 OA
ATOM     17  H   LIG d   1      -3.485  92.212 116.582  0.00  0.00     0.149 HD
ENDBRANCH   6  13
BRANCH   5  18
ATOM     18  N   LIG d   1      -5.285  93.715 119.454  0.00  0.00     0.381 N 
ATOM     19  H   LIG d   1      -5.523  93.004 120.116  0.00  0.00    -0.090 HD
ATOM     20  H   LIG d   1      -5.782  93.530 118.601  0.00  0.00    -0.090 HD
ATOM     21  H   LIG d   1      -5.542  94.609 119.810  0.00  0.00    -0.090 HD
ENDBRANCH   5  18
BRANCH   3  22
ATOM     22  C   LIG d   1      -0.935  94.777 121.154  0.00  0.00     0.382 C 
ATOM     23  O   LIG d   1      -1.137  96.015 121.131  0.00  0.00    -0.241 OA
ATOM     24  O   LIG d   1      -0.001  94.320 121.839  0.00  0.00    -0.241 OA
ENDBRANCH   3  22
TORSDOF 7
ENDMDL
MODEL 8
REMARK VINA RESULT:      -4.3      5.248      8.086
REMARK  7 active torsions:
REMARK  status: ('A' for Active; 'I' for Inactive)
REMARK    1  A    between atoms: C_2  and  C_3 
REMARK    2  A    between atoms: C_3  and  O_6 
REMARK    3  A    between atoms: C_3  and  C_4 
REMARK    4  A    between atoms: C_7  and  O_6 
REMARK    5  A    between atoms: C_9  and  C_10 
REMARK    6  A    between atoms: N_15  and  C_14 
REMARK    7  A    between atoms: N_20  and  C_19 
REMARK       I    between atoms: C_22  and  N_20 
ROOT
ATOM      1  C   LIG d   1       0.820  90.607 119.228  0.00  0.00     0.161 C 
ATOM      2  C   LIG d   1       1.893  91.242 118.582  0.00  0.00     0.016 C 
ATOM      3  C   LIG d   1       2.350  90.880 117.294  0.00  0.00     0.038 C 
ATOM      4  C   LIG d   1       1.664  89.951 116.498  0.00  0.00     0.028 C 
ATOM      5  C   LIG d   1       0.877  88.924 117.306  0.00  0.00    -0.047 C 
ATOM      6  C   LIG d   1      -0.011  89.666 118.331  0.00  0.00     0.091 C 
ENDROOT
BRANCH   1   7
ATOM      7  O   LIG d   1      -0.031  91.592 119.845  0.00  0.00    -0.368 OA
BRANCH   7   8
ATOM      8  C   LIG d   1      -1.104  92.113 119.022  0.00  0.00     0.119 C 
BRANCH   8   9
ATOM      9  C   LIG d   1      -0.841  93.617 118.816  0.00  0.00     0.028 C 
ATOM     10  C   LIG d   1      -2.094  94.472 119.070  0.00  0.00     0.006 C 
ENDBRANCH   8   9
BRANCH   8  11
ATOM     11  C   LIG d   1      -2.451  92.032 119.747  0.00  0.00     0.028 C 
ATOM     12  C   LIG d   1      -2.347  91.365 121.127  0.00  0.00     0.006 C 
ENDBRANCH   8  11
ENDBRANCH   7   8
ENDBRANCH   1   7
BRANCH   6  13
ATOM     13  N   LIG d   1      -0.751  88.733 119.220  0.00  0.00    -0.311 N 
ATOM     14  C   LIG d   1      -2.002  88.339 118.990  0.00  0.00     0.210 C 
ATOM     15  C   LIG d   1      -2.585  87.391 120.042  0.00  0.00     0.109 C 
ATOM     16  O   LIG d   1      -2.674  88.659 117.998  0.00  0.00    -0.276 OA
ATOM     17  H   LIG d   1      -0.270  88.400 120.032  0.00  0.00     0.149 HD
ENDBRANCH   6  13
BRANCH   5  18
ATOM     18  N   LIG d   1       0.102  88.106 116.354  0.00  0.00     0.381 N 
ATOM     19  H   LIG d   1       0.637  87.958 115.522  0.00  0.00    -0.090 HD
ATOM     20  H   LIG d   1      -0.736  88.602 116.107  0.00  0.00    -0.090 HD
ATOM     21  H   LIG d   1      -0.132  87.231 116.768  0.00  0.00    -0.090 HD
ENDBRANCH   5  18
BRANCH   3  22
ATOM     22  C   LIG d   1       3.530  91.420 116.806  0.00  0.00     0.382 C 
ATOM     23  O   LIG d   1       3.844  92.601 117.092  0.00  0.00    -0.241 OA
ATOM     24  O   LIG d   1       4.262  90.758 116.047  0.00  0.00    -0.241 OA
ENDBRANCH   3  22
TORSDOF 7
ENDMDL
MODEL 9
REMARK VINA RESULT:      -4.2      2.910      4.951
REMARK  7 active torsions:
REMARK  status: ('A' for Active; 'I' for Inactive)
REMARK    1  A    between atoms: C_2  and  C_3 
REMARK    2  A    between atoms: C_3  and  O_6 
REMARK    3  A    between atoms: C_3  and  C_4 
REMARK    4  A    between atoms: C_7  and  O_6 
REMARK    5  A    between atoms: C_9  and  C_10 
REMARK    6  A    between atoms: N_15  and  C_14 
REMARK    7  A    between atoms: N_20  and  C_19 
REMARK       I    between atoms: C_22  and  N_20 
ROOT
ATOM      1  C   LIG d   1      -4.356  92.365 119.239  0.00  0.00     0.161 C 
ATOM      2  C   LIG d   1      -4.035  91.004 119.103  0.00  0.00     0.016 C 
ATOM      3  C   LIG d   1      -2.771  90.543 118.669  0.00  0.00     0.038 C 
ATOM      4  C   LIG d   1      -1.686  91.414 118.485  0.00  0.00     0.028 C 
ATOM      5  C   LIG d   1      -2.105  92.835 118.124  0.00  0.00    -0.047 C 
ATOM      6  C   LIG d   1      -3.152  93.326 119.150  0.00  0.00     0.091 C 
ENDROOT
BRANCH   1   7
ATOM      7  O   LIG d   1      -5.075  92.577 120.470  0.00  0.00    -0.368 OA
BRANCH   7   8
ATOM      8  C   LIG d   1      -6.502  92.331 120.425  0.00  0.00     0.119 C 
BRANCH   8   9
ATOM      9  C   LIG d   1      -7.081  93.177 119.274  0.00  0.00     0.028 C 
ATOM     10  C   LIG d   1      -7.310  94.642 119.681  0.00  0.00     0.006 C 
ENDBRANCH   8   9
BRANCH   8  11
ATOM     11  C   LIG d   1      -7.196  92.840 121.692  0.00  0.00     0.028 C 
ATOM     12  C   LIG d   1      -7.470  91.723 122.711  0.00  0.00     0.006 C 
ENDBRANCH   8  11
ENDBRANCH   7   8
ENDBRANCH   1   7
BRANCH   6  13
ATOM     13  N   LIG d   1      -3.677  94.677 118.822  0.00  0.00    -0.311 N 
ATOM     14  C   LIG d   1      -3.657  95.699 119.675  0.00  0.00     0.210 C 
ATOM     15  C   LIG d   1      -4.268  96.999 119.142  0.00  0.00     0.109 C 
ATOM     16  O   LIG d   1      -3.163  95.661 120.812  0.00  0.00    -0.276 OA
ATOM     17  H   LIG d   1      -4.069  94.804 117.909  0.00  0.00     0.149 HD
ENDBRANCH   6  13
BRANCH   5  18
ATOM     18  N   LIG d   1      -0.887  93.666 118.097  0.00  0.00     0.381 N 
ATOM     19  H   LIG d   1      -0.949  94.380 118.794  0.00  0.00    -0.090 HD
ATOM     20  H   LIG d   1      -0.814  94.108 117.198  0.00  0.00    -0.090 HD
ATOM     21  H   LIG d   1      -0.084  93.099 118.263  0.00  0.00    -0.090 HD
ENDBRANCH   5  18
BRANCH   3  22
ATOM     22  C   LIG d   1      -2.593  89.199 118.376  0.00  0.00     0.382 C 
ATOM     23  O   LIG d   1      -2.043  88.859 117.301  0.00  0.00    -0.241 OA
ATOM     24  O   LIG d   1      -3.017  88.322 119.152  0.00  0.00    -0.241 OA
ENDBRANCH   3  22
TORSDOF 7
ENDMDL
