MODEL 1
REMARK VINA RESULT:      -5.2      0.000      0.000
REMARK  7 active torsions:
REMARK  status: ('A' for Active; 'I' for Inactive)
REMARK    1  A    between atoms: C_2  and  C_3 
REMARK    2  A    between atoms: C_3  and  O_6 
REMARK    3  A    between atoms: C_3  and  C_4 
REMARK    4  A    between atoms: C_7  and  O_6 
REMARK    5  A    between atoms: C_9  and  C_10 
REMARK    6  A    between atoms: N_15  and  C_14 
REMARK    7  A    between atoms: N_20  and  C_19 
REMARK       I    between atoms: C_22  and  N_20 
ROOT
ATOM      1  C   LIG d   1      -6.031  93.482 118.568  0.00  0.00     0.161 C 
ATOM      2  C   LIG d   1      -6.722  92.430 117.942  0.00  0.00     0.016 C 
ATOM      3  C   LIG d   1      -6.077  91.344 117.309  0.00  0.00     0.038 C 
ATOM      4  C   LIG d   1      -4.689  91.156 117.389  0.00  0.00     0.028 C 
ATOM      5  C   LIG d   1      -3.912  92.455 117.576  0.00  0.00    -0.047 C 
ATOM      6  C   LIG d   1      -4.520  93.237 118.762  0.00  0.00     0.091 C 
ENDROOT
BRANCH   1   7
ATOM      7  O   LIG d   1      -6.655  93.794 119.829  0.00  0.00    -0.368 OA
BRANCH   7   8
ATOM      8  C   LIG d   1      -7.140  95.151 119.982  0.00  0.00     0.119 C 
BRANCH   8   9
ATOM      9  C   LIG d   1      -8.567  95.070 120.558  0.00  0.00     0.028 C 
ATOM     10  C   LIG d   1      -9.607  94.675 119.497  0.00  0.00     0.006 C 
ENDBRANCH   8   9
BRANCH   8  11
ATOM     11  C   LIG d   1      -7.290  95.845 118.625  0.00  0.00     0.028 C 
ATOM     12  C   LIG d   1      -6.597  97.216 118.577  0.00  0.00     0.006 C 
ENDBRANCH   8  11
ENDBRANCH   7   8
ENDBRANCH   1   7
BRANCH   6  13
ATOM     13  N   LIG d   1      -3.873  94.560 118.960  0.00  0.00    -0.311 N 
ATOM     14  C   LIG d   1      -3.410  94.981 120.136  0.00  0.00     0.210 C 
ATOM     15  C   LIG d   1      -2.797  96.385 120.125  0.00  0.00     0.109 C 
ATOM     16  O   LIG d   1      -3.421  94.313 121.181  0.00  0.00    -0.276 OA
ATOM     17  H   LIG d   1      -3.794  95.155 118.158  0.00  0.00     0.149 HD
ENDBRANCH   6  13
BRANCH   5  18
ATOM     18  N   LIG d   1      -2.495  92.101 117.782  0.00  0.00     0.381 N 
ATOM     19  H   LIG d   1      -2.188  91.493 117.050  0.00  0.00    -0.090 HD
ATOM     20  H   LIG d   1      -2.406  91.613 118.656  0.00  0.00    -0.090 HD
ATOM     21  H   LIG d   1      -1.936  92.926 117.796  0.00  0.00    -0.090 HD
ENDBRANCH   5  18
BRANCH   3  22
ATOM     22  C   LIG d   1      -6.819  90.451 116.550  0.00  0.00     0.382 C 
ATOM     23  O   LIG d   1      -8.000  90.181 116.877  0.00  0.00    -0.241 OA
ATOM     24  O   LIG d   1      -6.308  89.879 115.569  0.00  0.00    -0.241 OA
ENDBRANCH   3  22
TORSDOF 7
ENDMDL
MODEL 2
REMARK VINA RESULT:      -4.9      0.712      1.744
REMARK  7 active torsions:
REMARK  status: ('A' for Active; 'I' for Inactive)
REMARK    1  A    between atoms: C_2  and  C_3 
REMARK    2  A    between atoms: C_3  and  O_6 
REMARK    3  A    between atoms: C_3  and  C_4 
REMARK    4  A    between atoms: C_7  and  O_6 
REMARK    5  A    between atoms: C_9  and  C_10 
REMARK    6  A    between atoms: N_15  and  C_14 
REMARK    7  A    between atoms: N_20  and  C_19 
REMARK       I    between atoms: C_22  and  N_20 
ROOT
ATOM      1  C   LIG d   1      -6.119  93.575 118.191  0.00  0.00     0.161 C 
ATOM      2  C   LIG d   1      -6.712  92.580 117.395  0.00  0.00     0.016 C 
ATOM      3  C   LIG d   1      -5.995  91.493 116.846  0.00  0.00     0.038 C 
ATOM      4  C   LIG d   1      -4.656  91.242 117.182  0.00  0.00     0.028 C 
ATOM      5  C   LIG d   1      -3.885  92.498 117.576  0.00  0.00    -0.047 C 
ATOM      6  C   LIG d   1      -4.684  93.258 118.660  0.00  0.00     0.091 C 
ENDROOT
BRANCH   1   7
ATOM      7  O   LIG d   1      -6.964  93.863 119.323  0.00  0.00    -0.368 OA
BRANCH   7   8
ATOM      8  C   LIG d   1      -8.002  94.851 119.109  0.00  0.00     0.119 C 
BRANCH   8   9
ATOM      9  C   LIG d   1      -7.316  96.148 118.636  0.00  0.00     0.028 C 
ATOM     10  C   LIG d   1      -7.089  97.143 119.786  0.00  0.00     0.006 C 
ENDBRANCH   8   9
BRANCH   8  11
ATOM     11  C   LIG d   1      -8.702  95.217 120.421  0.00  0.00     0.028 C 
ATOM     12  C   LIG d   1     -10.180  94.796 120.445  0.00  0.00     0.006 C 
ENDBRANCH   8  11
ENDBRANCH   7   8
ENDBRANCH   1   7
BRANCH   6  13
ATOM     13  N   LIG d   1      -4.041  94.542 119.041  0.00  0.00    -0.311 N 
ATOM     14  C   LIG d   1      -3.206  94.666 120.071  0.00  0.00     0.210 C 
ATOM     15  C   LIG d   1      -2.671  96.083 120.302  0.00  0.00     0.109 C 
ATOM     16  O   LIG d   1      -2.832  93.731 120.795  0.00  0.00    -0.276 OA
ATOM     17  H   LIG d   1      -4.264  95.346 118.488  0.00  0.00     0.149 HD
ENDBRANCH   6  13
BRANCH   5  18
ATOM     18  N   LIG d   1      -2.548  92.075 118.033  0.00  0.00     0.381 N 
ATOM     19  H   LIG d   1      -1.909  92.842 117.968  0.00  0.00    -0.090 HD
ATOM     20  H   LIG d   1      -2.218  91.338 117.434  0.00  0.00    -0.090 HD
ATOM     21  H   LIG d   1      -2.596  91.751 118.974  0.00  0.00    -0.090 HD
ENDBRANCH   5  18
BRANCH   3  22
ATOM     22  C   LIG d   1      -6.607  90.665 115.918  0.00  0.00     0.382 C 
ATOM     23  O   LIG d   1      -5.977  89.694 115.432  0.00  0.00    -0.241 OA
ATOM     24  O   LIG d   1      -7.766  90.902 115.527  0.00  0.00    -0.241 OA
ENDBRANCH   3  22
TORSDOF 7
ENDMDL
MODEL 3
REMARK VINA RESULT:      -4.7      2.227      4.297
REMARK  7 active torsions:
REMARK  status: ('A' for Active; 'I' for Inactive)
REMARK    1  A    between atoms: C_2  and  C_3 
REMARK    2  A    between atoms: C_3  and  O_6 
REMARK    3  A    between atoms: C_3  and  C_4 
REMARK    4  A    between atoms: C_7  and  O_6 
REMARK    5  A    between atoms: C_9  and  C_10 
REMARK    6  A    between atoms: N_15  and  C_14 
REMARK    7  A    between atoms: N_20  and  C_19 
REMARK       I    between atoms: C_22  and  N_20 
ROOT
ATOM      1  C   LIG d   1      -5.068  92.116 119.169  0.00  0.00     0.161 C 
ATOM      2  C   LIG d   1      -5.319  91.304 118.050  0.00  0.00     0.016 C 
ATOM      3  C   LIG d   1      -6.212  91.661 117.014  0.00  0.00     0.038 C 
ATOM      4  C   LIG d   1      -6.806  92.931 116.952  0.00  0.00     0.028 C 
ATOM      5  C   LIG d   1      -6.976  93.588 118.318  0.00  0.00    -0.047 C 
ATOM      6  C   LIG d   1      -5.622  93.552 119.063  0.00  0.00     0.091 C 
ENDROOT
BRANCH   1   7
ATOM      7  O   LIG d   1      -3.654  92.144 119.446  0.00  0.00    -0.368 OA
BRANCH   7   8
ATOM      8  C   LIG d   1      -2.777  92.032 118.298  0.00  0.00     0.119 C 
BRANCH   8   9
ATOM      9  C   LIG d   1      -1.692  90.994 118.644  0.00  0.00     0.028 C 
ATOM     10  C   LIG d   1      -0.481  91.075 117.699  0.00  0.00     0.006 C 
ENDBRANCH   8   9
BRANCH   8  11
ATOM     11  C   LIG d   1      -2.022  93.340 118.045  0.00  0.00     0.028 C 
ATOM     12  C   LIG d   1      -2.002  94.264 119.272  0.00  0.00     0.006 C 
ENDBRANCH   8  11
ENDBRANCH   7   8
ENDBRANCH   1   7
BRANCH   6  13
ATOM     13  N   LIG d   1      -5.719  94.100 120.441  0.00  0.00    -0.311 N 
ATOM     14  C   LIG d   1      -5.427  95.362 120.751  0.00  0.00     0.210 C 
ATOM     15  C   LIG d   1      -5.575  95.714 122.234  0.00  0.00     0.109 C 
ATOM     16  O   LIG d   1      -5.089  96.231 119.933  0.00  0.00    -0.276 OA
ATOM     17  H   LIG d   1      -6.016  93.471 121.162  0.00  0.00     0.149 HD
ENDBRANCH   6  13
BRANCH   5  18
ATOM     18  N   LIG d   1      -7.477  94.957 118.094  0.00  0.00     0.381 N 
ATOM     19  H   LIG d   1      -6.727  95.612 118.187  0.00  0.00    -0.090 HD
ATOM     20  H   LIG d   1      -8.168  95.168 118.792  0.00  0.00    -0.090 HD
ATOM     21  H   LIG d   1      -7.880  95.029 117.186  0.00  0.00    -0.090 HD
ENDBRANCH   5  18
BRANCH   3  22
ATOM     22  C   LIG d   1      -6.551  90.727 116.047  0.00  0.00     0.382 C 
ATOM     23  O   LIG d   1      -7.700  90.736 115.542  0.00  0.00    -0.241 OA
ATOM     24  O   LIG d   1      -5.737  89.849 115.705  0.00  0.00    -0.241 OA
ENDBRANCH   3  22
TORSDOF 7
ENDMDL
MODEL 4
REMARK VINA RESULT:      -4.7      2.361      4.469
REMARK  7 active torsions:
REMARK  status: ('A' for Active; 'I' for Inactive)
REMARK    1  A    between atoms: C_2  and  C_3 
REMARK    2  A    between atoms: C_3  and  O_6 
REMARK    3  A    between atoms: C_3  and  C_4 
REMARK    4  A    between atoms: C_7  and  O_6 
REMARK    5  A    between atoms: C_9  and  C_10 
REMARK    6  A    between atoms: N_15  and  C_14 
REMARK    7  A    between atoms: N_20  and  C_19 
REMARK       I    between atoms: C_22  and  N_20 
ROOT
ATOM      1  C   LIG d   1      -4.988  91.842 118.982  0.00  0.00     0.161 C 
ATOM      2  C   LIG d   1      -5.332  91.068 117.861  0.00  0.00     0.016 C 
ATOM      3  C   LIG d   1      -6.203  91.518 116.842  0.00  0.00     0.038 C 
ATOM      4  C   LIG d   1      -6.672  92.839 116.797  0.00  0.00     0.028 C 
ATOM      5  C   LIG d   1      -6.757  93.498 118.170  0.00  0.00    -0.047 C 
ATOM      6  C   LIG d   1      -5.402  93.326 118.894  0.00  0.00     0.091 C 
ENDROOT
BRANCH   1   7
ATOM      7  O   LIG d   1      -3.574  91.730 119.237  0.00  0.00    -0.368 OA
BRANCH   7   8
ATOM      8  C   LIG d   1      -3.194  90.921 120.378  0.00  0.00     0.119 C 
BRANCH   8   9
ATOM      9  C   LIG d   1      -2.362  91.812 121.320  0.00  0.00     0.028 C 
ATOM     10  C   LIG d   1      -1.843  93.080 120.623  0.00  0.00     0.006 C 
ENDBRANCH   8   9
BRANCH   8  11
ATOM     11  C   LIG d   1      -2.258  89.781 119.965  0.00  0.00     0.028 C 
ATOM     12  C   LIG d   1      -2.953  88.410 119.965  0.00  0.00     0.006 C 
ENDBRANCH   8  11
ENDBRANCH   7   8
ENDBRANCH   1   7
BRANCH   6  13
ATOM     13  N   LIG d   1      -5.426  93.868 120.278  0.00  0.00    -0.311 N 
ATOM     14  C   LIG d   1      -5.004  95.092 120.592  0.00  0.00     0.210 C 
ATOM     15  C   LIG d   1      -5.097  95.445 122.080  0.00  0.00     0.109 C 
ATOM     16  O   LIG d   1      -4.593  95.930 119.776  0.00  0.00    -0.276 OA
ATOM     17  H   LIG d   1      -5.774  93.266 120.998  0.00  0.00     0.149 HD
ENDBRANCH   6  13
BRANCH   5  18
ATOM     18  N   LIG d   1      -7.127  94.911 117.964  0.00  0.00     0.381 N 
ATOM     19  H   LIG d   1      -8.018  94.966 117.514  0.00  0.00    -0.090 HD
ATOM     20  H   LIG d   1      -6.444  95.342 117.366  0.00  0.00    -0.090 HD
ATOM     21  H   LIG d   1      -7.159  95.386 118.839  0.00  0.00    -0.090 HD
ENDBRANCH   5  18
BRANCH   3  22
ATOM     22  C   LIG d   1      -6.644  90.629 115.873  0.00  0.00     0.382 C 
ATOM     23  O   LIG d   1      -7.818  90.709 115.437  0.00  0.00    -0.241 OA
ATOM     24  O   LIG d   1      -5.898  89.721 115.462  0.00  0.00    -0.241 OA
ENDBRANCH   3  22
TORSDOF 7
ENDMDL
MODEL 5
REMARK VINA RESULT:      -4.3      4.209      7.179
REMARK  7 active torsions:
REMARK  status: ('A' for Active; 'I' for Inactive)
REMARK    1  A    between atoms: C_2  and  C_3 
REMARK    2  A    between atoms: C_3  and  O_6 
REMARK    3  A    between atoms: C_3  and  C_4 
REMARK    4  A    between atoms: C_7  and  O_6 
REMARK    5  A    between atoms: C_9  and  C_10 
REMARK    6  A    between atoms: N_15  and  C_14 
REMARK    7  A    between atoms: N_20  and  C_19 
REMARK       I    between atoms: C_22  and  N_20 
ROOT
ATOM      1  C   LIG d   1      -1.139  91.798 117.879  0.00  0.00     0.161 C 
ATOM      2  C   LIG d   1       0.254  91.975 117.934  0.00  0.00     0.016 C 
ATOM      3  C   LIG d   1       0.877  93.244 117.954  0.00  0.00     0.038 C 
ATOM      4  C   LIG d   1       0.138  94.431 118.073  0.00  0.00     0.028 C 
ATOM      5  C   LIG d   1      -1.276  94.323 117.512  0.00  0.00    -0.047 C 
ATOM      6  C   LIG d   1      -1.964  93.079 118.120  0.00  0.00     0.091 C 
ENDROOT
BRANCH   1   7
ATOM      7  O   LIG d   1      -1.537  90.764 118.801  0.00  0.00    -0.368 OA
BRANCH   7   8
ATOM      8  C   LIG d   1      -2.026  89.536 118.209  0.00  0.00     0.119 C 
BRANCH   8   9
ATOM      9  C   LIG d   1      -2.853  88.802 119.283  0.00  0.00     0.028 C 
ATOM     10  C   LIG d   1      -3.210  89.711 120.471  0.00  0.00     0.006 C 
ENDBRANCH   8   9
BRANCH   8  11
ATOM     11  C   LIG d   1      -0.875  88.586 117.865  0.00  0.00     0.028 C 
ATOM     12  C   LIG d   1      -0.406  87.757 119.071  0.00  0.00     0.006 C 
ENDBRANCH   8  11
ENDBRANCH   7   8
ENDBRANCH   1   7
BRANCH   6  13
ATOM     13  N   LIG d   1      -3.322  92.852 117.561  0.00  0.00    -0.311 N 
ATOM     14  C   LIG d   1      -4.417  92.750 118.312  0.00  0.00     0.210 C 
ATOM     15  C   LIG d   1      -5.712  92.496 117.536  0.00  0.00     0.109 C 
ATOM     16  O   LIG d   1      -4.442  92.878 119.545  0.00  0.00    -0.276 OA
ATOM     17  H   LIG d   1      -3.397  92.768 116.566  0.00  0.00     0.149 HD
ENDBRANCH   6  13
BRANCH   5  18
ATOM     18  N   LIG d   1      -1.977  95.583 117.825  0.00  0.00     0.381 N 
ATOM     19  H   LIG d   1      -2.934  95.392 118.046  0.00  0.00    -0.090 HD
ATOM     20  H   LIG d   1      -1.952  96.178 117.017  0.00  0.00    -0.090 HD
ATOM     21  H   LIG d   1      -1.536  96.036 118.595  0.00  0.00    -0.090 HD
ENDBRANCH   5  18
BRANCH   3  22
ATOM     22  C   LIG d   1       2.253  93.337 117.814  0.00  0.00     0.382 C 
ATOM     23  O   LIG d   1       2.811  92.876 116.789  0.00  0.00    -0.241 OA
ATOM     24  O   LIG d   1       2.948  93.835 118.719  0.00  0.00    -0.241 OA
ENDBRANCH   3  22
TORSDOF 7
ENDMDL
MODEL 6
REMARK VINA RESULT:      -4.3      2.757      5.135
REMARK  7 active torsions:
REMARK  status: ('A' for Active; 'I' for Inactive)
REMARK    1  A    between atoms: C_2  and  C_3 
REMARK    2  A    between atoms: C_3  and  O_6 
REMARK    3  A    between atoms: C_3  and  C_4 
REMARK    4  A    between atoms: C_7  and  O_6 
REMARK    5  A    between atoms: C_9  and  C_10 
REMARK    6  A    between atoms: N_15  and  C_14 
REMARK    7  A    between atoms: N_20  and  C_19 
REMARK       I    between atoms: C_22  and  N_20 
ROOT
ATOM      1  C   LIG d   1      -3.918  91.917 119.025  0.00  0.00     0.161 C 
ATOM      2  C   LIG d   1      -5.016  92.789 119.113  0.00  0.00     0.016 C 
ATOM      3  C   LIG d   1      -6.082  92.795 118.184  0.00  0.00     0.038 C 
ATOM      4  C   LIG d   1      -6.197  91.821 117.182  0.00  0.00     0.028 C 
ATOM      5  C   LIG d   1      -4.857  91.236 116.748  0.00  0.00    -0.047 C 
ATOM      6  C   LIG d   1      -4.082  90.773 118.002  0.00  0.00     0.091 C 
ENDROOT
BRANCH   1   7
ATOM      7  O   LIG d   1      -3.612  91.384 120.328  0.00  0.00    -0.368 OA
BRANCH   7   8
ATOM      8  C   LIG d   1      -2.370  91.832 120.924  0.00  0.00     0.119 C 
BRANCH   8   9
ATOM      9  C   LIG d   1      -2.729  92.751 122.108  0.00  0.00     0.028 C 
ATOM     10  C   LIG d   1      -2.646  94.242 121.740  0.00  0.00     0.006 C 
ENDBRANCH   8   9
BRANCH   8  11
ATOM     11  C   LIG d   1      -1.572  92.711 119.956  0.00  0.00     0.028 C 
ATOM     12  C   LIG d   1      -0.198  92.119 119.608  0.00  0.00     0.006 C 
ENDBRANCH   8  11
ENDBRANCH   7   8
ENDBRANCH   1   7
BRANCH   6  13
ATOM     13  N   LIG d   1      -2.724  90.265 117.675  0.00  0.00    -0.311 N 
ATOM     14  C   LIG d   1      -2.195  89.176 118.229  0.00  0.00     0.210 C 
ATOM     15  C   LIG d   1      -0.775  88.839 117.765  0.00  0.00     0.109 C 
ATOM     16  O   LIG d   1      -2.780  88.438 119.037  0.00  0.00    -0.276 OA
ATOM     17  H   LIG d   1      -2.192  90.786 117.005  0.00  0.00     0.149 HD
ENDBRANCH   6  13
BRANCH   5  18
ATOM     18  N   LIG d   1      -5.135  90.139 115.802  0.00  0.00     0.381 N 
ATOM     19  H   LIG d   1      -4.321  89.566 115.699  0.00  0.00    -0.090 HD
ATOM     20  H   LIG d   1      -5.358  90.532 114.905  0.00  0.00    -0.090 HD
ATOM     21  H   LIG d   1      -5.898  89.590 116.131  0.00  0.00    -0.090 HD
ENDBRANCH   5  18
BRANCH   3  22
ATOM     22  C   LIG d   1      -7.026  93.810 118.228  0.00  0.00     0.382 C 
ATOM     23  O   LIG d   1      -8.232  93.555 117.993  0.00  0.00    -0.241 OA
ATOM     24  O   LIG d   1      -6.681  94.985 118.456  0.00  0.00    -0.241 OA
ENDBRANCH   3  22
TORSDOF 7
ENDMDL
MODEL 7
REMARK VINA RESULT:      -4.3      2.981      5.647
REMARK  7 active torsions:
REMARK  status: ('A' for Active; 'I' for Inactive)
REMARK    1  A    between atoms: C_2  and  C_3 
REMARK    2  A    between atoms: C_3  and  O_6 
REMARK    3  A    between atoms: C_3  and  C_4 
REMARK    4  A    between atoms: C_7  and  O_6 
REMARK    5  A    between atoms: C_9  and  C_10 
REMARK    6  A    between atoms: N_15  and  C_14 
REMARK    7  A    between atoms: N_20  and  C_19 
REMARK       I    between atoms: C_22  and  N_20 
ROOT
ATOM      1  C   LIG d   1      -3.036  91.237 118.196  0.00  0.00     0.161 C 
ATOM      2  C   LIG d   1      -3.955  90.622 117.330  0.00  0.00     0.016 C 
ATOM      3  C   LIG d   1      -5.193  91.203 116.969  0.00  0.00     0.038 C 
ATOM      4  C   LIG d   1      -5.529  92.515 117.331  0.00  0.00     0.028 C 
ATOM      5  C   LIG d   1      -4.856  92.980 118.618  0.00  0.00    -0.047 C 
ATOM      6  C   LIG d   1      -3.336  92.717 118.513  0.00  0.00     0.091 C 
ENDROOT
BRANCH   1   7
ATOM      7  O   LIG d   1      -1.701  91.098 117.669  0.00  0.00    -0.368 OA
BRANCH   7   8
ATOM      8  C   LIG d   1      -0.776  90.325 118.472  0.00  0.00     0.119 C 
BRANCH   8   9
ATOM      9  C   LIG d   1       0.646  90.825 118.151  0.00  0.00     0.028 C 
ATOM     10  C   LIG d   1       0.820  91.183 116.665  0.00  0.00     0.006 C 
ENDBRANCH   8   9
BRANCH   8  11
ATOM     11  C   LIG d   1      -0.787  88.848 118.069  0.00  0.00     0.028 C 
ATOM     12  C   LIG d   1      -1.090  87.910 119.249  0.00  0.00     0.006 C 
ENDBRANCH   8  11
ENDBRANCH   7   8
ENDBRANCH   1   7
BRANCH   6  13
ATOM     13  N   LIG d   1      -2.612  93.065 119.763  0.00  0.00    -0.311 N 
ATOM     14  C   LIG d   1      -1.497  93.793 119.786  0.00  0.00     0.210 C 
ATOM     15  C   LIG d   1      -0.901  94.018 121.179  0.00  0.00     0.109 C 
ATOM     16  O   LIG d   1      -0.963  94.300 118.789  0.00  0.00    -0.276 OA
ATOM     17  H   LIG d   1      -2.994  92.720 120.622  0.00  0.00     0.149 HD
ENDBRANCH   6  13
BRANCH   5  18
ATOM     18  N   LIG d   1      -5.184  94.406 118.804  0.00  0.00     0.381 N 
ATOM     19  H   LIG d   1      -5.584  94.773 117.964  0.00  0.00    -0.090 HD
ATOM     20  H   LIG d   1      -4.338  94.912 118.998  0.00  0.00    -0.090 HD
ATOM     21  H   LIG d   1      -5.825  94.513 119.559  0.00  0.00    -0.090 HD
ENDBRANCH   5  18
BRANCH   3  22
ATOM     22  C   LIG d   1      -6.126  90.453 116.269  0.00  0.00     0.382 C 
ATOM     23  O   LIG d   1      -5.744  89.601 115.430  0.00  0.00    -0.241 OA
ATOM     24  O   LIG d   1      -7.345  90.649 116.433  0.00  0.00    -0.241 OA
ENDBRANCH   3  22
TORSDOF 7
ENDMDL
MODEL 8
REMARK VINA RESULT:      -4.2      2.447      4.237
REMARK  7 active torsions:
REMARK  status: ('A' for Active; 'I' for Inactive)
REMARK    1  A    between atoms: C_2  and  C_3 
REMARK    2  A    between atoms: C_3  and  O_6 
REMARK    3  A    between atoms: C_3  and  C_4 
REMARK    4  A    between atoms: C_7  and  O_6 
REMARK    5  A    between atoms: C_9  and  C_10 
REMARK    6  A    between atoms: N_15  and  C_14 
REMARK    7  A    between atoms: N_20  and  C_19 
REMARK       I    between atoms: C_22  and  N_20 
ROOT
ATOM      1  C   LIG d   1      -5.824  92.907 120.046  0.00  0.00     0.161 C 
ATOM      2  C   LIG d   1      -5.345  92.209 118.925  0.00  0.00     0.016 C 
ATOM      3  C   LIG d   1      -5.907  92.332 117.633  0.00  0.00     0.038 C 
ATOM      4  C   LIG d   1      -6.897  93.282 117.342  0.00  0.00     0.028 C 
ATOM      5  C   LIG d   1      -7.756  93.649 118.547  0.00  0.00    -0.047 C 
ATOM      6  C   LIG d   1      -6.831  94.031 119.726  0.00  0.00     0.091 C 
ENDROOT
BRANCH   1   7
ATOM      7  O   LIG d   1      -4.717  93.428 120.807  0.00  0.00    -0.368 OA
BRANCH   7   8
ATOM      8  C   LIG d   1      -4.033  94.571 120.236  0.00  0.00     0.119 C 
BRANCH   8   9
ATOM      9  C   LIG d   1      -2.562  94.167 120.014  0.00  0.00     0.028 C 
ATOM     10  C   LIG d   1      -2.206  94.047 118.522  0.00  0.00     0.006 C 
ENDBRANCH   8   9
BRANCH   8  11
ATOM     11  C   LIG d   1      -3.987  95.742 121.222  0.00  0.00     0.028 C 
ATOM     12  C   LIG d   1      -2.554  96.200 121.536  0.00  0.00     0.006 C 
ENDBRANCH   8  11
ENDBRANCH   7   8
ENDBRANCH   1   7
BRANCH   6  13
ATOM     13  N   LIG d   1      -7.590  94.323 120.970  0.00  0.00    -0.311 N 
ATOM     14  C   LIG d   1      -7.937  95.553 121.345  0.00  0.00     0.210 C 
ATOM     15  C   LIG d   1      -8.698  95.634 122.672  0.00  0.00     0.109 C 
ATOM     16  O   LIG d   1      -7.715  96.582 120.689  0.00  0.00    -0.276 OA
ATOM     17  H   LIG d   1      -7.838  93.543 121.547  0.00  0.00     0.149 HD
ENDBRANCH   6  13
BRANCH   5  18
ATOM     18  N   LIG d   1      -8.653  94.746 118.137  0.00  0.00     0.381 N 
ATOM     19  H   LIG d   1      -9.545  94.376 117.878  0.00  0.00    -0.090 HD
ATOM     20  H   LIG d   1      -8.258  95.207 117.336  0.00  0.00    -0.090 HD
ATOM     21  H   LIG d   1      -8.760  95.397 118.884  0.00  0.00    -0.090 HD
ENDBRANCH   5  18
BRANCH   3  22
ATOM     22  C   LIG d   1      -5.505  91.469 116.624  0.00  0.00     0.382 C 
ATOM     23  O   LIG d   1      -5.811  91.713 115.432  0.00  0.00    -0.241 OA
ATOM     24  O   LIG d   1      -4.879  90.427 116.896  0.00  0.00    -0.241 OA
ENDBRANCH   3  22
TORSDOF 7
ENDMDL
MODEL 9
REMARK VINA RESULT:      -4.1      4.436      6.840
REMARK  7 active torsions:
REMARK  status: ('A' for Active; 'I' for Inactive)
REMARK    1  A    between atoms: C_2  and  C_3 
REMARK    2  A    between atoms: C_3  and  O_6 
REMARK    3  A    between atoms: C_3  and  C_4 
REMARK    4  A    between atoms: C_7  and  O_6 
REMARK    5  A    between atoms: C_9  and  C_10 
REMARK    6  A    between atoms: N_15  and  C_14 
REMARK    7  A    between atoms: N_20  and  C_19 
REMARK       I    between atoms: C_22  and  N_20 
ROOT
ATOM      1  C   LIG d   1      -0.298  91.895 119.077  0.00  0.00     0.161 C 
ATOM      2  C   LIG d   1      -1.280  90.962 118.704  0.00  0.00     0.016 C 
ATOM      3  C   LIG d   1      -2.570  91.328 118.254  0.00  0.00     0.038 C 
ATOM      4  C   LIG d   1      -2.916  92.663 118.002  0.00  0.00     0.028 C 
ATOM      5  C   LIG d   1      -2.128  93.663 118.842  0.00  0.00    -0.047 C 
ATOM      6  C   LIG d   1      -0.620  93.357 118.702  0.00  0.00     0.091 C 
ENDROOT
BRANCH   1   7
ATOM      7  O   LIG d   1       0.977  91.506 118.530  0.00  0.00    -0.368 OA
BRANCH   7   8
ATOM      8  C   LIG d   1       1.352  92.134 117.279  0.00  0.00     0.119 C 
BRANCH   8   9
ATOM      9  C   LIG d   1       1.332  91.045 116.190  0.00  0.00     0.028 C 
ATOM     10  C   LIG d   1       1.945  89.719 116.674  0.00  0.00     0.006 C 
ENDBRANCH   8   9
BRANCH   8  11
ATOM     11  C   LIG d   1       2.798  92.639 117.320  0.00  0.00     0.028 C 
ATOM     12  C   LIG d   1       3.396  92.619 118.736  0.00  0.00     0.006 C 
ENDBRANCH   8  11
ENDBRANCH   7   8
ENDBRANCH   1   7
BRANCH   6  13
ATOM     13  N   LIG d   1       0.219  94.235 119.560  0.00  0.00    -0.311 N 
ATOM     14  C   LIG d   1       0.828  95.331 119.111  0.00  0.00     0.210 C 
ATOM     15  C   LIG d   1       1.660  96.082 120.156  0.00  0.00     0.109 C 
ATOM     16  O   LIG d   1       0.733  95.771 117.956  0.00  0.00    -0.276 OA
ATOM     17  H   LIG d   1       0.324  93.970 120.519  0.00  0.00     0.149 HD
ENDBRANCH   6  13
BRANCH   5  18
ATOM     18  N   LIG d   1      -2.489  95.016 118.381  0.00  0.00     0.381 N 
ATOM     19  H   LIG d   1      -2.936  95.519 119.121  0.00  0.00    -0.090 HD
ATOM     20  H   LIG d   1      -3.138  94.937 117.617  0.00  0.00    -0.090 HD
ATOM     21  H   LIG d   1      -1.673  95.504 118.083  0.00  0.00    -0.090 HD
ENDBRANCH   5  18
BRANCH   3  22
ATOM     22  C   LIG d   1      -3.542  90.353 118.090  0.00  0.00     0.382 C 
ATOM     23  O   LIG d   1      -4.398  90.468 117.180  0.00  0.00    -0.241 OA
ATOM     24  O   LIG d   1      -3.602  89.383 118.869  0.00  0.00    -0.241 OA
ENDBRANCH   3  22
TORSDOF 7
ENDMDL
