MODEL 1
REMARK VINA RESULT:      -5.1      0.000      0.000
REMARK  7 active torsions:
REMARK  status: ('A' for Active; 'I' for Inactive)
REMARK    1  A    between atoms: C_2  and  C_3 
REMARK    2  A    between atoms: C_3  and  O_6 
REMARK    3  A    between atoms: C_3  and  C_4 
REMARK    4  A    between atoms: C_7  and  O_6 
REMARK    5  A    between atoms: C_9  and  C_10 
REMARK    6  A    between atoms: N_15  and  C_14 
REMARK    7  A    between atoms: N_20  and  C_19 
REMARK       I    between atoms: C_22  and  N_20 
ROOT
ATOM      1  C   LIG d   1      -5.918  92.032 118.939  0.00  0.00     0.161 C 
ATOM      2  C   LIG d   1      -5.833  90.993 117.997  0.00  0.00     0.016 C 
ATOM      3  C   LIG d   1      -6.329  91.098 116.677  0.00  0.00     0.038 C 
ATOM      4  C   LIG d   1      -6.810  92.309 116.159  0.00  0.00     0.028 C 
ATOM      5  C   LIG d   1      -7.379  93.240 117.225  0.00  0.00    -0.047 C 
ATOM      6  C   LIG d   1      -6.340  93.398 118.358  0.00  0.00     0.091 C 
ENDROOT
BRANCH   1   7
ATOM      7  O   LIG d   1      -4.668  92.153 119.647  0.00  0.00    -0.368 OA
BRANCH   7   8
ATOM      8  C   LIG d   1      -3.662  92.989 119.025  0.00  0.00     0.119 C 
BRANCH   8   9
ATOM      9  C   LIG d   1      -2.476  92.081 118.645  0.00  0.00     0.028 C 
ATOM     10  C   LIG d   1      -2.394  90.823 119.526  0.00  0.00     0.006 C 
ENDBRANCH   8   9
BRANCH   8  11
ATOM     11  C   LIG d   1      -3.091  94.006 120.018  0.00  0.00     0.028 C 
ATOM     12  C   LIG d   1      -3.702  93.875 121.422  0.00  0.00     0.006 C 
ENDBRANCH   8  11
ENDBRANCH   7   8
ENDBRANCH   1   7
BRANCH   6  13
ATOM     13  N   LIG d   1      -6.849  94.227 119.483  0.00  0.00    -0.311 N 
ATOM     14  C   LIG d   1      -6.565  95.520 119.628  0.00  0.00     0.210 C 
ATOM     15  C   LIG d   1      -7.176  96.181 120.867  0.00  0.00     0.109 C 
ATOM     16  O   LIG d   1      -5.892  96.190 118.830  0.00  0.00    -0.276 OA
ATOM     17  H   LIG d   1      -7.429  93.770 120.159  0.00  0.00     0.149 HD
ENDBRANCH   6  13
BRANCH   5  18
ATOM     18  N   LIG d   1      -7.717  94.516 116.568  0.00  0.00     0.381 N 
ATOM     19  H   LIG d   1      -7.749  95.250 117.248  0.00  0.00    -0.090 HD
ATOM     20  H   LIG d   1      -8.626  94.435 116.148  0.00  0.00    -0.090 HD
ATOM     21  H   LIG d   1      -7.039  94.731 115.870  0.00  0.00    -0.090 HD
ENDBRANCH   5  18
BRANCH   3  22
ATOM     22  C   LIG d   1      -6.382  89.970 115.872  0.00  0.00     0.382 C 
ATOM     23  O   LIG d   1      -7.485  89.566 115.430  0.00  0.00    -0.241 OA
ATOM     24  O   LIG d   1      -5.347  89.325 115.618  0.00  0.00    -0.241 OA
ENDBRANCH   3  22
TORSDOF 7
ENDMDL
MODEL 2
REMARK VINA RESULT:      -5.0      1.077      1.484
REMARK  7 active torsions:
REMARK  status: ('A' for Active; 'I' for Inactive)
REMARK    1  A    between atoms: C_2  and  C_3 
REMARK    2  A    between atoms: C_3  and  O_6 
REMARK    3  A    between atoms: C_3  and  C_4 
REMARK    4  A    between atoms: C_7  and  O_6 
REMARK    5  A    between atoms: C_9  and  C_10 
REMARK    6  A    between atoms: N_15  and  C_14 
REMARK    7  A    between atoms: N_20  and  C_19 
REMARK       I    between atoms: C_22  and  N_20 
ROOT
ATOM      1  C   LIG d   1      -5.749  92.104 118.883  0.00  0.00     0.161 C 
ATOM      2  C   LIG d   1      -5.821  91.029 117.981  0.00  0.00     0.016 C 
ATOM      3  C   LIG d   1      -6.461  91.110 116.723  0.00  0.00     0.038 C 
ATOM      4  C   LIG d   1      -6.945  92.324 116.214  0.00  0.00     0.028 C 
ATOM      5  C   LIG d   1      -7.344  93.319 117.299  0.00  0.00    -0.047 C 
ATOM      6  C   LIG d   1      -6.175  93.467 118.299  0.00  0.00     0.091 C 
ENDROOT
BRANCH   1   7
ATOM      7  O   LIG d   1      -4.422  92.189 119.438  0.00  0.00    -0.368 OA
BRANCH   7   8
ATOM      8  C   LIG d   1      -3.404  91.396 118.779  0.00  0.00     0.119 C 
BRANCH   8   9
ATOM      9  C   LIG d   1      -2.739  90.512 119.852  0.00  0.00     0.028 C 
ATOM     10  C   LIG d   1      -2.861  89.012 119.534  0.00  0.00     0.006 C 
ENDBRANCH   8   9
BRANCH   8  11
ATOM     11  C   LIG d   1      -2.280  92.279 118.228  0.00  0.00     0.028 C 
ATOM     12  C   LIG d   1      -1.045  92.311 119.143  0.00  0.00     0.006 C 
ENDBRANCH   8  11
ENDBRANCH   7   8
ENDBRANCH   1   7
BRANCH   6  13
ATOM     13  N   LIG d   1      -6.513  94.359 119.439  0.00  0.00    -0.311 N 
ATOM     14  C   LIG d   1      -5.838  95.471 119.726  0.00  0.00     0.210 C 
ATOM     15  C   LIG d   1      -6.340  96.233 120.956  0.00  0.00     0.109 C 
ATOM     16  O   LIG d   1      -4.891  95.915 119.059  0.00  0.00    -0.276 OA
ATOM     17  H   LIG d   1      -7.287  94.090 120.014  0.00  0.00     0.149 HD
ENDBRANCH   6  13
BRANCH   5  18
ATOM     18  N   LIG d   1      -7.700  94.586 116.633  0.00  0.00     0.381 N 
ATOM     19  H   LIG d   1      -8.352  95.094 117.196  0.00  0.00    -0.090 HD
ATOM     20  H   LIG d   1      -8.137  94.379 115.752  0.00  0.00    -0.090 HD
ATOM     21  H   LIG d   1      -6.881  95.135 116.485  0.00  0.00    -0.090 HD
ENDBRANCH   5  18
BRANCH   3  22
ATOM     22  C   LIG d   1      -6.657  89.958 115.976  0.00  0.00     0.382 C 
ATOM     23  O   LIG d   1      -5.670  89.302 115.565  0.00  0.00    -0.241 OA
ATOM     24  O   LIG d   1      -7.808  89.592 115.670  0.00  0.00    -0.241 OA
ENDBRANCH   3  22
TORSDOF 7
ENDMDL
MODEL 3
REMARK VINA RESULT:      -5.0      2.554      4.660
REMARK  7 active torsions:
REMARK  status: ('A' for Active; 'I' for Inactive)
REMARK    1  A    between atoms: C_2  and  C_3 
REMARK    2  A    between atoms: C_3  and  O_6 
REMARK    3  A    between atoms: C_3  and  C_4 
REMARK    4  A    between atoms: C_7  and  O_6 
REMARK    5  A    between atoms: C_9  and  C_10 
REMARK    6  A    between atoms: N_15  and  C_14 
REMARK    7  A    between atoms: N_20  and  C_19 
REMARK       I    between atoms: C_22  and  N_20 
ROOT
ATOM      1  C   LIG d   1      -4.537  92.751 117.994  0.00  0.00     0.161 C 
ATOM      2  C   LIG d   1      -5.453  93.812 118.092  0.00  0.00     0.016 C 
ATOM      3  C   LIG d   1      -6.823  93.691 117.762  0.00  0.00     0.038 C 
ATOM      4  C   LIG d   1      -7.404  92.452 117.454  0.00  0.00     0.028 C 
ATOM      5  C   LIG d   1      -6.420  91.453 116.854  0.00  0.00    -0.047 C 
ATOM      6  C   LIG d   1      -5.176  91.365 117.767  0.00  0.00     0.091 C 
ENDROOT
BRANCH   1   7
ATOM      7  O   LIG d   1      -3.691  92.728 119.161  0.00  0.00    -0.368 OA
BRANCH   7   8
ATOM      8  C   LIG d   1      -4.286  93.210 120.390  0.00  0.00     0.119 C 
BRANCH   8   9
ATOM      9  C   LIG d   1      -3.209  94.019 121.139  0.00  0.00     0.028 C 
ATOM     10  C   LIG d   1      -1.895  94.120 120.348  0.00  0.00     0.006 C 
ENDBRANCH   8   9
BRANCH   8  11
ATOM     11  C   LIG d   1      -4.648  92.053 121.326  0.00  0.00     0.028 C 
ATOM     12  C   LIG d   1      -6.146  91.711 121.298  0.00  0.00     0.006 C 
ENDBRANCH   8  11
ENDBRANCH   7   8
ENDBRANCH   1   7
BRANCH   6  13
ATOM     13  N   LIG d   1      -4.126  90.472 117.209  0.00  0.00    -0.311 N 
ATOM     14  C   LIG d   1      -3.488  89.552 117.930  0.00  0.00     0.210 C 
ATOM     15  C   LIG d   1      -2.428  88.753 117.165  0.00  0.00     0.109 C 
ATOM     16  O   LIG d   1      -3.721  89.300 119.121  0.00  0.00    -0.276 OA
ATOM     17  H   LIG d   1      -3.896  90.588 116.242  0.00  0.00     0.149 HD
ENDBRANCH   6  13
BRANCH   5  18
ATOM     18  N   LIG d   1      -7.124  90.165 116.710  0.00  0.00     0.381 N 
ATOM     19  H   LIG d   1      -7.851  90.098 117.394  0.00  0.00    -0.090 HD
ATOM     20  H   LIG d   1      -6.472  89.418 116.870  0.00  0.00    -0.090 HD
ATOM     21  H   LIG d   1      -7.511  90.088 115.795  0.00  0.00    -0.090 HD
ENDBRANCH   5  18
BRANCH   3  22
ATOM     22  C   LIG d   1      -7.617  94.825 117.700  0.00  0.00     0.382 C 
ATOM     23  O   LIG d   1      -7.180  95.921 118.126  0.00  0.00    -0.241 OA
ATOM     24  O   LIG d   1      -8.782  94.757 117.263  0.00  0.00    -0.241 OA
ENDBRANCH   3  22
TORSDOF 7
ENDMDL
MODEL 4
REMARK VINA RESULT:      -4.6      2.431      3.912
REMARK  7 active torsions:
REMARK  status: ('A' for Active; 'I' for Inactive)
REMARK    1  A    between atoms: C_2  and  C_3 
REMARK    2  A    between atoms: C_3  and  O_6 
REMARK    3  A    between atoms: C_3  and  C_4 
REMARK    4  A    between atoms: C_7  and  O_6 
REMARK    5  A    between atoms: C_9  and  C_10 
REMARK    6  A    between atoms: N_15  and  C_14 
REMARK    7  A    between atoms: N_20  and  C_19 
REMARK       I    between atoms: C_22  and  N_20 
ROOT
ATOM      1  C   LIG d   1      -3.771  90.925 118.466  0.00  0.00     0.161 C 
ATOM      2  C   LIG d   1      -4.750  90.437 117.584  0.00  0.00     0.016 C 
ATOM      3  C   LIG d   1      -5.759  91.248 117.016  0.00  0.00     0.038 C 
ATOM      4  C   LIG d   1      -5.767  92.642 117.173  0.00  0.00     0.028 C 
ATOM      5  C   LIG d   1      -5.097  93.110 118.461  0.00  0.00    -0.047 C 
ATOM      6  C   LIG d   1      -3.696  92.463 118.561  0.00  0.00     0.091 C 
ENDROOT
BRANCH   1   7
ATOM      7  O   LIG d   1      -2.483  90.382 118.115  0.00  0.00    -0.368 OA
BRANCH   7   8
ATOM      8  C   LIG d   1      -1.920  89.425 119.046  0.00  0.00     0.119 C 
BRANCH   8   9
ATOM      9  C   LIG d   1      -0.389  89.599 119.019  0.00  0.00     0.028 C 
ATOM     10  C   LIG d   1       0.139  89.927 117.612  0.00  0.00     0.006 C 
ENDBRANCH   8   9
BRANCH   8  11
ATOM     11  C   LIG d   1      -2.173  87.986 118.588  0.00  0.00     0.028 C 
ATOM     12  C   LIG d   1      -2.402  87.019 119.761  0.00  0.00     0.006 C 
ENDBRANCH   8  11
ENDBRANCH   7   8
ENDBRANCH   1   7
BRANCH   6  13
ATOM     13  N   LIG d   1      -3.006  92.802 119.833  0.00  0.00    -0.311 N 
ATOM     14  C   LIG d   1      -1.703  93.065 119.912  0.00  0.00     0.210 C 
ATOM     15  C   LIG d   1      -1.189  93.371 121.323  0.00  0.00     0.109 C 
ATOM     16  O   LIG d   1      -0.929  93.106 118.943  0.00  0.00    -0.276 OA
ATOM     17  H   LIG d   1      -3.564  92.822 120.664  0.00  0.00     0.149 HD
ENDBRANCH   6  13
BRANCH   5  18
ATOM     18  N   LIG d   1      -5.053  94.584 118.430  0.00  0.00     0.381 N 
ATOM     19  H   LIG d   1      -4.567  94.891 117.611  0.00  0.00    -0.090 HD
ATOM     20  H   LIG d   1      -4.550  94.911 119.236  0.00  0.00    -0.090 HD
ATOM     21  H   LIG d   1      -5.978  94.953 118.434  0.00  0.00    -0.090 HD
ENDBRANCH   5  18
BRANCH   3  22
ATOM     22  C   LIG d   1      -6.799  90.659 116.313  0.00  0.00     0.382 C 
ATOM     23  O   LIG d   1      -7.542  91.362 115.586  0.00  0.00    -0.241 OA
ATOM     24  O   LIG d   1      -7.031  89.441 116.431  0.00  0.00    -0.241 OA
ENDBRANCH   3  22
TORSDOF 7
ENDMDL
MODEL 5
REMARK VINA RESULT:      -4.4      2.478      5.284
REMARK  7 active torsions:
REMARK  status: ('A' for Active; 'I' for Inactive)
REMARK    1  A    between atoms: C_2  and  C_3 
REMARK    2  A    between atoms: C_3  and  O_6 
REMARK    3  A    between atoms: C_3  and  C_4 
REMARK    4  A    between atoms: C_7  and  O_6 
REMARK    5  A    between atoms: C_9  and  C_10 
REMARK    6  A    between atoms: N_15  and  C_14 
REMARK    7  A    between atoms: N_20  and  C_19 
REMARK       I    between atoms: C_22  and  N_20 
ROOT
ATOM      1  C   LIG d   1      -5.319  91.430 119.500  0.00  0.00     0.161 C 
ATOM      2  C   LIG d   1      -4.154  91.591 120.268  0.00  0.00     0.016 C 
ATOM      3  C   LIG d   1      -2.886  91.112 119.867  0.00  0.00     0.038 C 
ATOM      4  C   LIG d   1      -2.667  90.571 118.591  0.00  0.00     0.028 C 
ATOM      5  C   LIG d   1      -3.911  89.932 117.983  0.00  0.00    -0.047 C 
ATOM      6  C   LIG d   1      -5.080  90.940 118.056  0.00  0.00     0.091 C 
ENDROOT
BRANCH   1   7
ATOM      7  O   LIG d   1      -6.073  92.659 119.493  0.00  0.00    -0.368 OA
BRANCH   7   8
ATOM      8  C   LIG d   1      -5.736  93.608 118.452  0.00  0.00     0.119 C 
BRANCH   8   9
ATOM      9  C   LIG d   1      -5.286  94.911 119.141  0.00  0.00     0.028 C 
ATOM     10  C   LIG d   1      -5.622  94.927 120.642  0.00  0.00     0.006 C 
ENDBRANCH   8   9
BRANCH   8  11
ATOM     11  C   LIG d   1      -6.969  93.991 117.627  0.00  0.00     0.028 C 
ATOM     12  C   LIG d   1      -8.289  93.717 118.365  0.00  0.00     0.006 C 
ENDBRANCH   8  11
ENDBRANCH   7   8
ENDBRANCH   1   7
BRANCH   6  13
ATOM     13  N   LIG d   1      -6.357  90.365 117.559  0.00  0.00    -0.311 N 
ATOM     14  C   LIG d   1      -6.809  90.546 116.319  0.00  0.00     0.210 C 
ATOM     15  C   LIG d   1      -8.157  89.883 116.019  0.00  0.00     0.109 C 
ATOM     16  O   LIG d   1      -6.206  91.167 115.430  0.00  0.00    -0.276 OA
ATOM     17  H   LIG d   1      -6.895  89.822 118.205  0.00  0.00     0.149 HD
ENDBRANCH   6  13
BRANCH   5  18
ATOM     18  N   LIG d   1      -3.577  89.532 116.603  0.00  0.00     0.381 N 
ATOM     19  H   LIG d   1      -2.944  88.758 116.618  0.00  0.00    -0.090 HD
ATOM     20  H   LIG d   1      -3.124  90.301 116.143  0.00  0.00    -0.090 HD
ATOM     21  H   LIG d   1      -4.407  89.283 116.110  0.00  0.00    -0.090 HD
ENDBRANCH   5  18
BRANCH   3  22
ATOM     22  C   LIG d   1      -1.827  91.138 120.762  0.00  0.00     0.382 C 
ATOM     23  O   LIG d   1      -2.034  91.404 121.970  0.00  0.00    -0.241 OA
ATOM     24  O   LIG d   1      -0.662  90.942 120.368  0.00  0.00    -0.241 OA
ENDBRANCH   3  22
TORSDOF 7
ENDMDL
MODEL 6
REMARK VINA RESULT:      -4.4      2.286      4.320
REMARK  7 active torsions:
REMARK  status: ('A' for Active; 'I' for Inactive)
REMARK    1  A    between atoms: C_2  and  C_3 
REMARK    2  A    between atoms: C_3  and  O_6 
REMARK    3  A    between atoms: C_3  and  C_4 
REMARK    4  A    between atoms: C_7  and  O_6 
REMARK    5  A    between atoms: C_9  and  C_10 
REMARK    6  A    between atoms: N_15  and  C_14 
REMARK    7  A    between atoms: N_20  and  C_19 
REMARK       I    between atoms: C_22  and  N_20 
ROOT
ATOM      1  C   LIG d   1      -4.853  93.339 118.030  0.00  0.00     0.161 C 
ATOM      2  C   LIG d   1      -5.901  92.674 117.371  0.00  0.00     0.016 C 
ATOM      3  C   LIG d   1      -5.971  91.268 117.243  0.00  0.00     0.038 C 
ATOM      4  C   LIG d   1      -5.070  90.418 117.901  0.00  0.00     0.028 C 
ATOM      5  C   LIG d   1      -3.710  91.057 118.157  0.00  0.00    -0.047 C 
ATOM      6  C   LIG d   1      -3.920  92.423 118.850  0.00  0.00     0.091 C 
ENDROOT
BRANCH   1   7
ATOM      7  O   LIG d   1      -5.387  94.386 118.865  0.00  0.00    -0.368 OA
BRANCH   7   8
ATOM      8  C   LIG d   1      -6.762  94.221 119.292  0.00  0.00     0.119 C 
BRANCH   8   9
ATOM      9  C   LIG d   1      -7.477  95.569 119.079  0.00  0.00     0.028 C 
ATOM     10  C   LIG d   1      -8.387  95.560 117.839  0.00  0.00     0.006 C 
ENDBRANCH   8   9
BRANCH   8  11
ATOM     11  C   LIG d   1      -6.849  93.950 120.797  0.00  0.00     0.028 C 
ATOM     12  C   LIG d   1      -6.865  92.450 121.132  0.00  0.00     0.006 C 
ENDBRANCH   8  11
ENDBRANCH   7   8
ENDBRANCH   1   7
BRANCH   6  13
ATOM     13  N   LIG d   1      -2.644  93.154 119.060  0.00  0.00    -0.311 N 
ATOM     14  C   LIG d   1      -1.941  93.093 120.190  0.00  0.00     0.210 C 
ATOM     15  C   LIG d   1      -0.665  93.939 120.205  0.00  0.00     0.109 C 
ATOM     16  O   LIG d   1      -2.237  92.392 121.170  0.00  0.00    -0.276 OA
ATOM     17  H   LIG d   1      -2.313  93.723 118.305  0.00  0.00     0.149 HD
ENDBRANCH   6  13
BRANCH   5  18
ATOM     18  N   LIG d   1      -2.919  90.113 118.968  0.00  0.00     0.381 N 
ATOM     19  H   LIG d   1      -2.461  89.454 118.371  0.00  0.00    -0.090 HD
ATOM     20  H   LIG d   1      -3.539  89.609 119.577  0.00  0.00    -0.090 HD
ATOM     21  H   LIG d   1      -2.243  90.609 119.507  0.00  0.00    -0.090 HD
ENDBRANCH   5  18
BRANCH   3  22
ATOM     22  C   LIG d   1      -6.929  90.701 116.417  0.00  0.00     0.382 C 
ATOM     23  O   LIG d   1      -7.134  89.463 116.452  0.00  0.00    -0.241 OA
ATOM     24  O   LIG d   1      -7.559  91.404 115.604  0.00  0.00    -0.241 OA
ENDBRANCH   3  22
TORSDOF 7
ENDMDL
MODEL 7
REMARK VINA RESULT:      -4.3      2.265      5.080
REMARK  7 active torsions:
REMARK  status: ('A' for Active; 'I' for Inactive)
REMARK    1  A    between atoms: C_2  and  C_3 
REMARK    2  A    between atoms: C_3  and  O_6 
REMARK    3  A    between atoms: C_3  and  C_4 
REMARK    4  A    between atoms: C_7  and  O_6 
REMARK    5  A    between atoms: C_9  and  C_10 
REMARK    6  A    between atoms: N_15  and  C_14 
REMARK    7  A    between atoms: N_20  and  C_19 
REMARK       I    between atoms: C_22  and  N_20 
ROOT
ATOM      1  C   LIG d   1      -6.205  91.727 118.650  0.00  0.00     0.161 C 
ATOM      2  C   LIG d   1      -7.038  92.715 118.100  0.00  0.00     0.016 C 
ATOM      3  C   LIG d   1      -6.719  94.093 118.105  0.00  0.00     0.038 C 
ATOM      4  C   LIG d   1      -5.467  94.562 118.530  0.00  0.00     0.028 C 
ATOM      5  C   LIG d   1      -4.797  93.657 119.558  0.00  0.00    -0.047 C 
ATOM      6  C   LIG d   1      -4.786  92.208 119.018  0.00  0.00     0.091 C 
ENDROOT
BRANCH   1   7
ATOM      7  O   LIG d   1      -6.135  90.595 117.760  0.00  0.00    -0.368 OA
BRANCH   7   8
ATOM      8  C   LIG d   1      -5.472  90.822 116.492  0.00  0.00     0.119 C 
BRANCH   8   9
ATOM      9  C   LIG d   1      -6.567  91.045 115.430  0.00  0.00     0.028 C 
ATOM     10  C   LIG d   1      -7.749  90.075 115.594  0.00  0.00     0.006 C 
ENDBRANCH   8   9
BRANCH   8  11
ATOM     11  C   LIG d   1      -4.709  89.577 116.031  0.00  0.00     0.028 C 
ATOM     12  C   LIG d   1      -3.567  89.191 116.985  0.00  0.00     0.006 C 
ENDBRANCH   8  11
ENDBRANCH   7   8
ENDBRANCH   1   7
BRANCH   6  13
ATOM     13  N   LIG d   1      -4.223  91.242 119.998  0.00  0.00    -0.311 N 
ATOM     14  C   LIG d   1      -2.932  90.923 120.053  0.00  0.00     0.210 C 
ATOM     15  C   LIG d   1      -2.566  89.891 121.125  0.00  0.00     0.109 C 
ATOM     16  O   LIG d   1      -2.049  91.419 119.337  0.00  0.00    -0.276 OA
ATOM     17  H   LIG d   1      -4.865  90.816 120.637  0.00  0.00     0.149 HD
ENDBRANCH   6  13
BRANCH   5  18
ATOM     18  N   LIG d   1      -3.445  94.191 119.808  0.00  0.00     0.381 N 
ATOM     19  H   LIG d   1      -3.275  94.233 120.793  0.00  0.00    -0.090 HD
ATOM     20  H   LIG d   1      -3.391  95.123 119.438  0.00  0.00    -0.090 HD
ATOM     21  H   LIG d   1      -2.763  93.611 119.371  0.00  0.00    -0.090 HD
ENDBRANCH   5  18
BRANCH   3  22
ATOM     22  C   LIG d   1      -7.674  95.021 117.719  0.00  0.00     0.382 C 
ATOM     23  O   LIG d   1      -8.801  94.634 117.324  0.00  0.00    -0.241 OA
ATOM     24  O   LIG d   1      -7.409  96.238 117.718  0.00  0.00    -0.241 OA
ENDBRANCH   3  22
TORSDOF 7
ENDMDL
MODEL 8
REMARK VINA RESULT:      -4.3      2.151      2.846
REMARK  7 active torsions:
REMARK  status: ('A' for Active; 'I' for Inactive)
REMARK    1  A    between atoms: C_2  and  C_3 
REMARK    2  A    between atoms: C_3  and  O_6 
REMARK    3  A    between atoms: C_3  and  C_4 
REMARK    4  A    between atoms: C_7  and  O_6 
REMARK    5  A    between atoms: C_9  and  C_10 
REMARK    6  A    between atoms: N_15  and  C_14 
REMARK    7  A    between atoms: N_20  and  C_19 
REMARK       I    between atoms: C_22  and  N_20 
ROOT
ATOM      1  C   LIG d   1      -5.088  91.551 119.685  0.00  0.00     0.161 C 
ATOM      2  C   LIG d   1      -4.056  90.649 119.380  0.00  0.00     0.016 C 
ATOM      3  C   LIG d   1      -3.933  90.000 118.130  0.00  0.00     0.038 C 
ATOM      4  C   LIG d   1      -4.754  90.328 117.041  0.00  0.00     0.028 C 
ATOM      5  C   LIG d   1      -6.123  90.861 117.453  0.00  0.00    -0.047 C 
ATOM      6  C   LIG d   1      -5.929  92.006 118.473  0.00  0.00     0.091 C 
ENDROOT
BRANCH   1   7
ATOM      7  O   LIG d   1      -4.549  92.695 120.377  0.00  0.00    -0.368 OA
BRANCH   7   8
ATOM      8  C   LIG d   1      -3.813  93.643 119.566  0.00  0.00     0.119 C 
BRANCH   8   9
ATOM      9  C   LIG d   1      -2.403  93.776 120.174  0.00  0.00     0.028 C 
ATOM     10  C   LIG d   1      -2.318  93.188 121.592  0.00  0.00     0.006 C 
ENDBRANCH   8   9
BRANCH   8  11
ATOM     11  C   LIG d   1      -4.426  95.044 119.652  0.00  0.00     0.028 C 
ATOM     12  C   LIG d   1      -5.420  95.189 120.815  0.00  0.00     0.006 C 
ENDBRANCH   8  11
ENDBRANCH   7   8
ENDBRANCH   1   7
BRANCH   6  13
ATOM     13  N   LIG d   1      -7.220  92.528 118.992  0.00  0.00    -0.311 N 
ATOM     14  C   LIG d   1      -7.830  93.602 118.494  0.00  0.00     0.210 C 
ATOM     15  C   LIG d   1      -9.142  93.981 119.188  0.00  0.00     0.109 C 
ATOM     16  O   LIG d   1      -7.425  94.258 117.522  0.00  0.00    -0.276 OA
ATOM     17  H   LIG d   1      -7.635  92.037 119.760  0.00  0.00     0.149 HD
ENDBRANCH   6  13
BRANCH   5  18
ATOM     18  N   LIG d   1      -6.821  91.292 116.227  0.00  0.00     0.381 N 
ATOM     19  H   LIG d   1      -6.187  91.277 115.453  0.00  0.00    -0.090 HD
ATOM     20  H   LIG d   1      -7.144  92.235 116.351  0.00  0.00    -0.090 HD
ATOM     21  H   LIG d   1      -7.593  90.689 116.044  0.00  0.00    -0.090 HD
ENDBRANCH   5  18
BRANCH   3  22
ATOM     22  C   LIG d   1      -3.005  88.982 117.972  0.00  0.00     0.382 C 
ATOM     23  O   LIG d   1      -3.031  87.986 118.734  0.00  0.00    -0.241 OA
ATOM     24  O   LIG d   1      -2.115  89.068 117.105  0.00  0.00    -0.241 OA
ENDBRANCH   3  22
TORSDOF 7
ENDMDL
MODEL 9
REMARK VINA RESULT:      -4.1      2.096      3.973
REMARK  7 active torsions:
REMARK  status: ('A' for Active; 'I' for Inactive)
REMARK    1  A    between atoms: C_2  and  C_3 
REMARK    2  A    between atoms: C_3  and  O_6 
REMARK    3  A    between atoms: C_3  and  C_4 
REMARK    4  A    between atoms: C_7  and  O_6 
REMARK    5  A    between atoms: C_9  and  C_10 
REMARK    6  A    between atoms: N_15  and  C_14 
REMARK    7  A    between atoms: N_20  and  C_19 
REMARK       I    between atoms: C_22  and  N_20 
ROOT
ATOM      1  C   LIG d   1      -6.094  93.185 118.933  0.00  0.00     0.161 C 
ATOM      2  C   LIG d   1      -6.856  92.340 118.107  0.00  0.00     0.016 C 
ATOM      3  C   LIG d   1      -6.289  91.345 117.278  0.00  0.00     0.038 C 
ATOM      4  C   LIG d   1      -4.925  91.023 117.333  0.00  0.00     0.028 C 
ATOM      5  C   LIG d   1      -4.045  92.187 117.778  0.00  0.00    -0.047 C 
ATOM      6  C   LIG d   1      -4.615  92.774 119.089  0.00  0.00     0.091 C 
ENDROOT
BRANCH   1   7
ATOM      7  O   LIG d   1      -6.722  93.299 120.225  0.00  0.00    -0.368 OA
BRANCH   7   8
ATOM      8  C   LIG d   1      -7.242  94.608 120.567  0.00  0.00     0.119 C 
BRANCH   8   9
ATOM      9  C   LIG d   1      -6.534  95.065 121.857  0.00  0.00     0.028 C 
ATOM     10  C   LIG d   1      -5.918  93.891 122.636  0.00  0.00     0.006 C 
ENDBRANCH   8   9
BRANCH   8  11
ATOM     11  C   LIG d   1      -8.730  94.540 120.924  0.00  0.00     0.028 C 
ATOM     12  C   LIG d   1      -9.630  95.164 119.846  0.00  0.00     0.006 C 
ENDBRANCH   8  11
ENDBRANCH   7   8
ENDBRANCH   1   7
BRANCH   6  13
ATOM     13  N   LIG d   1      -3.863  93.970 119.549  0.00  0.00    -0.311 N 
ATOM     14  C   LIG d   1      -2.893  93.921 120.461  0.00  0.00     0.210 C 
ATOM     15  C   LIG d   1      -2.260  95.273 120.806  0.00  0.00     0.109 C 
ATOM     16  O   LIG d   1      -2.475  92.882 120.993  0.00  0.00    -0.276 OA
ATOM     17  H   LIG d   1      -4.116  94.851 119.145  0.00  0.00     0.149 HD
ENDBRANCH   6  13
BRANCH   5  18
ATOM     18  N   LIG d   1      -2.669  91.675 117.923  0.00  0.00     0.381 N 
ATOM     19  H   LIG d   1      -2.256  92.046 118.756  0.00  0.00    -0.090 HD
ATOM     20  H   LIG d   1      -2.123  91.982 117.137  0.00  0.00    -0.090 HD
ATOM     21  H   LIG d   1      -2.678  90.680 117.963  0.00  0.00    -0.090 HD
ENDBRANCH   5  18
BRANCH   3  22
ATOM     22  C   LIG d   1      -7.084  90.687 116.353  0.00  0.00     0.382 C 
ATOM     23  O   LIG d   1      -7.216  89.440 116.413  0.00  0.00    -0.241 OA
ATOM     24  O   LIG d   1      -7.637  91.318 115.432  0.00  0.00    -0.241 OA
ENDBRANCH   3  22
TORSDOF 7
ENDMDL
