MODEL 1
REMARK VINA RESULT:      -5.0      0.000      0.000
REMARK  7 active torsions:
REMARK  status: ('A' for Active; 'I' for Inactive)
REMARK    1  A    between atoms: C_2  and  C_3 
REMARK    2  A    between atoms: C_3  and  O_6 
REMARK    3  A    between atoms: C_3  and  C_4 
REMARK    4  A    between atoms: C_7  and  O_6 
REMARK    5  A    between atoms: C_9  and  C_10 
REMARK    6  A    between atoms: N_15  and  C_14 
REMARK    7  A    between atoms: N_20  and  C_19 
REMARK       I    between atoms: C_22  and  N_20 
ROOT
ATOM      1  C   LIG d   1      -4.988  92.197 119.070  0.00  0.00     0.161 C 
ATOM      2  C   LIG d   1      -5.286  91.221 118.106  0.00  0.00     0.016 C 
ATOM      3  C   LIG d   1      -6.281  91.384 117.114  0.00  0.00     0.038 C 
ATOM      4  C   LIG d   1      -6.945  92.605 116.925  0.00  0.00     0.028 C 
ATOM      5  C   LIG d   1      -7.037  93.448 118.192  0.00  0.00    -0.047 C 
ATOM      6  C   LIG d   1      -5.626  93.578 118.811  0.00  0.00     0.091 C 
ENDROOT
BRANCH   1   7
ATOM      7  O   LIG d   1      -3.560  92.324 119.213  0.00  0.00    -0.368 OA
BRANCH   7   8
ATOM      8  C   LIG d   1      -2.801  92.402 117.981  0.00  0.00     0.119 C 
BRANCH   8   9
ATOM      9  C   LIG d   1      -1.642  91.391 118.086  0.00  0.00     0.028 C 
ATOM     10  C   LIG d   1      -1.511  90.794 119.497  0.00  0.00     0.006 C 
ENDBRANCH   8   9
BRANCH   8  11
ATOM     11  C   LIG d   1      -2.132  93.770 117.824  0.00  0.00     0.028 C 
ATOM     12  C   LIG d   1      -2.021  94.535 119.152  0.00  0.00     0.006 C 
ENDBRANCH   8  11
ENDBRANCH   7   8
ENDBRANCH   1   7
BRANCH   6  13
ATOM     13  N   LIG d   1      -5.638  94.318 120.100  0.00  0.00    -0.311 N 
ATOM     14  C   LIG d   1      -5.425  95.629 120.195  0.00  0.00     0.210 C 
ATOM     15  C   LIG d   1      -5.462  96.188 121.621  0.00  0.00     0.109 C 
ATOM     16  O   LIG d   1      -5.241  96.387 119.231  0.00  0.00    -0.276 OA
ATOM     17  H   LIG d   1      -5.811  93.785 120.930  0.00  0.00     0.149 HD
ENDBRANCH   6  13
BRANCH   5  18
ATOM     18  N   LIG d   1      -7.628  94.747 117.822  0.00  0.00     0.381 N 
ATOM     19  H   LIG d   1      -8.610  94.740 118.016  0.00  0.00    -0.090 HD
ATOM     20  H   LIG d   1      -7.502  94.892 116.836  0.00  0.00    -0.090 HD
ATOM     21  H   LIG d   1      -7.187  95.480 118.332  0.00  0.00    -0.090 HD
ENDBRANCH   5  18
BRANCH   3  22
ATOM     22  C   LIG d   1      -6.647  90.305 116.324  0.00  0.00     0.382 C 
ATOM     23  O   LIG d   1      -7.810  89.840 116.398  0.00  0.00    -0.241 OA
ATOM     24  O   LIG d   1      -5.817  89.763 115.570  0.00  0.00    -0.241 OA
ENDBRANCH   3  22
TORSDOF 7
ENDMDL
MODEL 2
REMARK VINA RESULT:      -5.0      2.112      4.424
REMARK  7 active torsions:
REMARK  status: ('A' for Active; 'I' for Inactive)
REMARK    1  A    between atoms: C_2  and  C_3 
REMARK    2  A    between atoms: C_3  and  O_6 
REMARK    3  A    between atoms: C_3  and  C_4 
REMARK    4  A    between atoms: C_7  and  O_6 
REMARK    5  A    between atoms: C_9  and  C_10 
REMARK    6  A    between atoms: N_15  and  C_14 
REMARK    7  A    between atoms: N_20  and  C_19 
REMARK       I    between atoms: C_22  and  N_20 
ROOT
ATOM      1  C   LIG d   1      -6.167  93.456 118.170  0.00  0.00     0.161 C 
ATOM      2  C   LIG d   1      -6.695  92.294 117.584  0.00  0.00     0.016 C 
ATOM      3  C   LIG d   1      -5.893  91.259 117.048  0.00  0.00     0.038 C 
ATOM      4  C   LIG d   1      -4.499  91.248 117.198  0.00  0.00     0.028 C 
ATOM      5  C   LIG d   1      -3.893  92.641 117.335  0.00  0.00    -0.047 C 
ATOM      6  C   LIG d   1      -4.649  93.410 118.443  0.00  0.00     0.091 C 
ENDROOT
BRANCH   1   7
ATOM      7  O   LIG d   1      -6.885  93.762 119.382  0.00  0.00    -0.368 OA
BRANCH   7   8
ATOM      8  C   LIG d   1      -7.883  94.807 119.284  0.00  0.00     0.119 C 
BRANCH   8   9
ATOM      9  C   LIG d   1      -7.607  95.818 120.414  0.00  0.00     0.028 C 
ATOM     10  C   LIG d   1      -6.713  96.981 119.955  0.00  0.00     0.006 C 
ENDBRANCH   8   9
BRANCH   8  11
ATOM     11  C   LIG d   1      -9.288  94.263 119.561  0.00  0.00     0.028 C 
ATOM     12  C   LIG d   1      -9.678  94.350 121.045  0.00  0.00     0.006 C 
ENDBRANCH   8  11
ENDBRANCH   7   8
ENDBRANCH   1   7
BRANCH   6  13
ATOM     13  N   LIG d   1      -4.175  94.812 118.584  0.00  0.00    -0.311 N 
ATOM     14  C   LIG d   1      -3.246  95.187 119.462  0.00  0.00     0.210 C 
ATOM     15  C   LIG d   1      -2.917  96.683 119.457  0.00  0.00     0.109 C 
ATOM     16  O   LIG d   1      -2.639  94.417 120.222  0.00  0.00    -0.276 OA
ATOM     17  H   LIG d   1      -4.591  95.497 117.984  0.00  0.00     0.149 HD
ENDBRANCH   6  13
BRANCH   5  18
ATOM     18  N   LIG d   1      -2.456  92.476 117.623  0.00  0.00     0.381 N 
ATOM     19  H   LIG d   1      -2.263  92.764 118.561  0.00  0.00    -0.090 HD
ATOM     20  H   LIG d   1      -1.930  93.062 116.999  0.00  0.00    -0.090 HD
ATOM     21  H   LIG d   1      -2.190  91.524 117.499  0.00  0.00    -0.090 HD
ENDBRANCH   5  18
BRANCH   3  22
ATOM     22  C   LIG d   1      -6.485  90.240 116.317  0.00  0.00     0.382 C 
ATOM     23  O   LIG d   1      -5.826  89.636 115.436  0.00  0.00    -0.241 OA
ATOM     24  O   LIG d   1      -7.682  89.948 116.496  0.00  0.00    -0.241 OA
ENDBRANCH   3  22
TORSDOF 7
ENDMDL
MODEL 3
REMARK VINA RESULT:      -4.7      1.591      2.043
REMARK  7 active torsions:
REMARK  status: ('A' for Active; 'I' for Inactive)
REMARK    1  A    between atoms: C_2  and  C_3 
REMARK    2  A    between atoms: C_3  and  O_6 
REMARK    3  A    between atoms: C_3  and  C_4 
REMARK    4  A    between atoms: C_7  and  O_6 
REMARK    5  A    between atoms: C_9  and  C_10 
REMARK    6  A    between atoms: N_15  and  C_14 
REMARK    7  A    between atoms: N_20  and  C_19 
REMARK       I    between atoms: C_22  and  N_20 
ROOT
ATOM      1  C   LIG d   1      -3.884  91.955 118.144  0.00  0.00     0.161 C 
ATOM      2  C   LIG d   1      -4.545  91.127 117.221  0.00  0.00     0.016 C 
ATOM      3  C   LIG d   1      -5.748  91.489 116.573  0.00  0.00     0.038 C 
ATOM      4  C   LIG d   1      -6.296  92.775 116.690  0.00  0.00     0.028 C 
ATOM      5  C   LIG d   1      -5.939  93.468 118.001  0.00  0.00    -0.047 C 
ATOM      6  C   LIG d   1      -4.407  93.406 118.200  0.00  0.00     0.091 C 
ENDROOT
BRANCH   1   7
ATOM      7  O   LIG d   1      -2.467  91.943 117.883  0.00  0.00    -0.368 OA
BRANCH   7   8
ATOM      8  C   LIG d   1      -1.650  91.216 118.833  0.00  0.00     0.119 C 
BRANCH   8   9
ATOM      9  C   LIG d   1      -1.160  89.932 118.135  0.00  0.00     0.028 C 
ATOM     10  C   LIG d   1      -2.003  88.702 118.511  0.00  0.00     0.006 C 
ENDBRANCH   8   9
BRANCH   8  11
ATOM     11  C   LIG d   1      -2.479  90.736 120.028  0.00  0.00     0.028 C 
ATOM     12  C   LIG d   1      -2.007  91.339 121.361  0.00  0.00     0.006 C 
ENDBRANCH   8  11
ENDBRANCH   7   8
ENDBRANCH   1   7
BRANCH   6  13
ATOM     13  N   LIG d   1      -3.980  93.987 119.499  0.00  0.00    -0.311 N 
ATOM     14  C   LIG d   1      -2.985  94.864 119.619  0.00  0.00     0.210 C 
ATOM     15  C   LIG d   1      -2.695  95.323 121.051  0.00  0.00     0.109 C 
ATOM     16  O   LIG d   1      -2.336  95.331 118.670  0.00  0.00    -0.276 OA
ATOM     17  H   LIG d   1      -4.474  93.688 120.317  0.00  0.00     0.149 HD
ENDBRANCH   6  13
BRANCH   5  18
ATOM     18  N   LIG d   1      -6.457  94.847 117.931  0.00  0.00     0.381 N 
ATOM     19  H   LIG d   1      -6.000  95.416 118.616  0.00  0.00    -0.090 HD
ATOM     20  H   LIG d   1      -7.441  94.835 118.137  0.00  0.00    -0.090 HD
ATOM     21  H   LIG d   1      -6.305  95.223 117.021  0.00  0.00    -0.090 HD
ENDBRANCH   5  18
BRANCH   3  22
ATOM     22  C   LIG d   1      -6.438  90.544 115.828  0.00  0.00     0.382 C 
ATOM     23  O   LIG d   1      -7.659  90.705 115.588  0.00  0.00    -0.241 OA
ATOM     24  O   LIG d   1      -5.866  89.512 115.431  0.00  0.00    -0.241 OA
ENDBRANCH   3  22
TORSDOF 7
ENDMDL
MODEL 4
REMARK VINA RESULT:      -4.6      2.283      4.449
REMARK  7 active torsions:
REMARK  status: ('A' for Active; 'I' for Inactive)
REMARK    1  A    between atoms: C_2  and  C_3 
REMARK    2  A    between atoms: C_3  and  O_6 
REMARK    3  A    between atoms: C_3  and  C_4 
REMARK    4  A    between atoms: C_7  and  O_6 
REMARK    5  A    between atoms: C_9  and  C_10 
REMARK    6  A    between atoms: N_15  and  C_14 
REMARK    7  A    between atoms: N_20  and  C_19 
REMARK       I    between atoms: C_22  and  N_20 
ROOT
ATOM      1  C   LIG d   1      -5.307  93.250 118.208  0.00  0.00     0.161 C 
ATOM      2  C   LIG d   1      -6.660  93.630 118.197  0.00  0.00     0.016 C 
ATOM      3  C   LIG d   1      -7.153  94.768 118.875  0.00  0.00     0.038 C 
ATOM      4  C   LIG d   1      -6.298  95.693 119.491  0.00  0.00     0.028 C 
ATOM      5  C   LIG d   1      -4.980  95.083 119.958  0.00  0.00    -0.047 C 
ATOM      6  C   LIG d   1      -4.342  94.308 118.782  0.00  0.00     0.091 C 
ENDROOT
BRANCH   1   7
ATOM      7  O   LIG d   1      -4.897  92.865 116.881  0.00  0.00    -0.368 OA
BRANCH   7   8
ATOM      8  C   LIG d   1      -4.571  91.465 116.696  0.00  0.00     0.119 C 
BRANCH   8   9
ATOM      9  C   LIG d   1      -5.626  90.867 115.745  0.00  0.00     0.028 C 
ATOM     10  C   LIG d   1      -6.912  90.454 116.481  0.00  0.00     0.006 C 
ENDBRANCH   8   9
BRANCH   8  11
ATOM     11  C   LIG d   1      -4.713  90.682 118.004  0.00  0.00     0.028 C 
ATOM     12  C   LIG d   1      -3.397  90.025 118.451  0.00  0.00     0.006 C 
ENDBRANCH   8  11
ENDBRANCH   7   8
ENDBRANCH   1   7
BRANCH   6  13
ATOM     13  N   LIG d   1      -3.091  93.610 119.177  0.00  0.00    -0.311 N 
ATOM     14  C   LIG d   1      -1.992  93.595 118.425  0.00  0.00     0.210 C 
ATOM     15  C   LIG d   1      -0.820  92.799 119.009  0.00  0.00     0.109 C 
ATOM     16  O   LIG d   1      -1.865  94.192 117.346  0.00  0.00    -0.276 OA
ATOM     17  H   LIG d   1      -3.096  93.125 120.053  0.00  0.00     0.149 HD
ENDBRANCH   6  13
BRANCH   5  18
ATOM     18  N   LIG d   1      -4.131  96.182 120.455  0.00  0.00     0.381 N 
ATOM     19  H   LIG d   1      -4.368  97.033 119.984  0.00  0.00    -0.090 HD
ATOM     20  H   LIG d   1      -3.171  95.968 120.253  0.00  0.00    -0.090 HD
ATOM     21  H   LIG d   1      -4.255  96.292 121.437  0.00  0.00    -0.090 HD
ENDBRANCH   5  18
BRANCH   3  22
ATOM     22  C   LIG d   1      -8.522  94.968 118.976  0.00  0.00     0.382 C 
ATOM     23  O   LIG d   1      -9.304  94.342 118.221  0.00  0.00    -0.241 OA
ATOM     24  O   LIG d   1      -8.981  95.798 119.783  0.00  0.00    -0.241 OA
ENDBRANCH   3  22
TORSDOF 7
ENDMDL
MODEL 5
REMARK VINA RESULT:      -4.4      2.326      4.364
REMARK  7 active torsions:
REMARK  status: ('A' for Active; 'I' for Inactive)
REMARK    1  A    between atoms: C_2  and  C_3 
REMARK    2  A    between atoms: C_3  and  O_6 
REMARK    3  A    between atoms: C_3  and  C_4 
REMARK    4  A    between atoms: C_7  and  O_6 
REMARK    5  A    between atoms: C_9  and  C_10 
REMARK    6  A    between atoms: N_15  and  C_14 
REMARK    7  A    between atoms: N_20  and  C_19 
REMARK       I    between atoms: C_22  and  N_20 
ROOT
ATOM      1  C   LIG d   1      -4.845  93.431 118.383  0.00  0.00     0.161 C 
ATOM      2  C   LIG d   1      -5.897  92.768 117.729  0.00  0.00     0.016 C 
ATOM      3  C   LIG d   1      -5.744  91.528 117.068  0.00  0.00     0.038 C 
ATOM      4  C   LIG d   1      -4.554  90.789 117.144  0.00  0.00     0.028 C 
ATOM      5  C   LIG d   1      -3.317  91.653 117.366  0.00  0.00    -0.047 C 
ATOM      6  C   LIG d   1      -3.567  92.587 118.572  0.00  0.00     0.091 C 
ENDROOT
BRANCH   1   7
ATOM      7  O   LIG d   1      -5.301  93.940 119.651  0.00  0.00    -0.368 OA
BRANCH   7   8
ATOM      8  C   LIG d   1      -6.468  93.293 120.216  0.00  0.00     0.119 C 
BRANCH   8   9
ATOM      9  C   LIG d   1      -7.306  94.379 120.917  0.00  0.00     0.028 C 
ATOM     10  C   LIG d   1      -8.814  94.082 120.865  0.00  0.00     0.006 C 
ENDBRANCH   8   9
BRANCH   8  11
ATOM     11  C   LIG d   1      -6.078  92.306 121.320  0.00  0.00     0.028 C 
ATOM     12  C   LIG d   1      -4.802  92.722 122.068  0.00  0.00     0.006 C 
ENDBRANCH   8  11
ENDBRANCH   7   8
ENDBRANCH   1   7
BRANCH   6  13
ATOM     13  N   LIG d   1      -2.439  93.526 118.805  0.00  0.00    -0.311 N 
ATOM     14  C   LIG d   1      -1.454  93.287 119.669  0.00  0.00     0.210 C 
ATOM     15  C   LIG d   1      -0.400  94.395 119.771  0.00  0.00     0.109 C 
ATOM     16  O   LIG d   1      -1.335  92.249 120.338  0.00  0.00    -0.276 OA
ATOM     17  H   LIG d   1      -2.439  94.379 118.282  0.00  0.00     0.149 HD
ENDBRANCH   6  13
BRANCH   5  18
ATOM     18  N   LIG d   1      -2.170  90.747 117.564  0.00  0.00     0.381 N 
ATOM     19  H   LIG d   1      -2.409  90.039 118.229  0.00  0.00    -0.090 HD
ATOM     20  H   LIG d   1      -1.398  91.276 117.930  0.00  0.00    -0.090 HD
ATOM     21  H   LIG d   1      -1.914  90.326 116.698  0.00  0.00    -0.090 HD
ENDBRANCH   5  18
BRANCH   3  22
ATOM     22  C   LIG d   1      -6.777  91.034 116.285  0.00  0.00     0.382 C 
ATOM     23  O   LIG d   1      -7.324  91.772 115.431  0.00  0.00    -0.241 OA
ATOM     24  O   LIG d   1      -7.198  89.874 116.454  0.00  0.00    -0.241 OA
ENDBRANCH   3  22
TORSDOF 7
ENDMDL
MODEL 6
REMARK VINA RESULT:      -4.4      2.128      3.265
REMARK  7 active torsions:
REMARK  status: ('A' for Active; 'I' for Inactive)
REMARK    1  A    between atoms: C_2  and  C_3 
REMARK    2  A    between atoms: C_3  and  O_6 
REMARK    3  A    between atoms: C_3  and  C_4 
REMARK    4  A    between atoms: C_7  and  O_6 
REMARK    5  A    between atoms: C_9  and  C_10 
REMARK    6  A    between atoms: N_15  and  C_14 
REMARK    7  A    between atoms: N_20  and  C_19 
REMARK       I    between atoms: C_22  and  N_20 
ROOT
ATOM      1  C   LIG d   1      -3.165  91.098 118.091  0.00  0.00     0.161 C 
ATOM      2  C   LIG d   1      -4.111  90.600 117.179  0.00  0.00     0.016 C 
ATOM      3  C   LIG d   1      -5.217  91.351 116.718  0.00  0.00     0.038 C 
ATOM      4  C   LIG d   1      -5.369  92.712 117.024  0.00  0.00     0.028 C 
ATOM      5  C   LIG d   1      -4.717  93.112 118.343  0.00  0.00    -0.047 C 
ATOM      6  C   LIG d   1      -3.253  92.616 118.349  0.00  0.00     0.091 C 
ENDROOT
BRANCH   1   7
ATOM      7  O   LIG d   1      -1.837  90.738 117.662  0.00  0.00    -0.368 OA
BRANCH   7   8
ATOM      8  C   LIG d   1      -1.099  89.858 118.544  0.00  0.00     0.119 C 
BRANCH   8   9
ATOM      9  C   LIG d   1       0.375  90.307 118.519  0.00  0.00     0.028 C 
ATOM     10  C   LIG d   1       0.559  91.678 117.846  0.00  0.00     0.006 C 
ENDBRANCH   8   9
BRANCH   8  11
ATOM     11  C   LIG d   1      -1.093  88.419 118.020  0.00  0.00     0.028 C 
ATOM     12  C   LIG d   1      -1.602  87.405 119.057  0.00  0.00     0.006 C 
ENDBRANCH   8  11
ENDBRANCH   7   8
ENDBRANCH   1   7
BRANCH   6  13
ATOM     13  N   LIG d   1      -2.566  92.893 119.638  0.00  0.00    -0.311 N 
ATOM     14  C   LIG d   1      -1.807  93.968 119.848  0.00  0.00     0.210 C 
ATOM     15  C   LIG d   1      -1.175  94.050 121.242  0.00  0.00     0.109 C 
ATOM     16  O   LIG d   1      -1.623  94.876 119.024  0.00  0.00    -0.276 OA
ATOM     17  H   LIG d   1      -2.686  92.223 120.372  0.00  0.00     0.149 HD
ENDBRANCH   6  13
BRANCH   5  18
ATOM     18  N   LIG d   1      -4.831  94.578 118.470  0.00  0.00     0.381 N 
ATOM     19  H   LIG d   1      -4.037  95.017 118.048  0.00  0.00    -0.090 HD
ATOM     20  H   LIG d   1      -4.845  94.820 119.445  0.00  0.00    -0.090 HD
ATOM     21  H   LIG d   1      -5.667  94.894 118.030  0.00  0.00    -0.090 HD
ENDBRANCH   5  18
BRANCH   3  22
ATOM     22  C   LIG d   1      -6.208  90.729 115.974  0.00  0.00     0.382 C 
ATOM     23  O   LIG d   1      -7.345  91.252 115.882  0.00  0.00    -0.241 OA
ATOM     24  O   LIG d   1      -5.993  89.629 115.431  0.00  0.00    -0.241 OA
ENDBRANCH   3  22
TORSDOF 7
ENDMDL
MODEL 7
REMARK VINA RESULT:      -4.1      2.475      4.438
REMARK  7 active torsions:
REMARK  status: ('A' for Active; 'I' for Inactive)
REMARK    1  A    between atoms: C_2  and  C_3 
REMARK    2  A    between atoms: C_3  and  O_6 
REMARK    3  A    between atoms: C_3  and  C_4 
REMARK    4  A    between atoms: C_7  and  O_6 
REMARK    5  A    between atoms: C_9  and  C_10 
REMARK    6  A    between atoms: N_15  and  C_14 
REMARK    7  A    between atoms: N_20  and  C_19 
REMARK       I    between atoms: C_22  and  N_20 
ROOT
ATOM      1  C   LIG d   1      -3.604  93.259 117.812  0.00  0.00     0.161 C 
ATOM      2  C   LIG d   1      -4.867  92.792 117.413  0.00  0.00     0.016 C 
ATOM      3  C   LIG d   1      -5.172  91.422 117.243  0.00  0.00     0.038 C 
ATOM      4  C   LIG d   1      -4.271  90.411 117.610  0.00  0.00     0.028 C 
ATOM      5  C   LIG d   1      -2.811  90.845 117.539  0.00  0.00    -0.047 C 
ATOM      6  C   LIG d   1      -2.642  92.166 118.324  0.00  0.00     0.091 C 
ENDROOT
BRANCH   1   7
ATOM      7  O   LIG d   1      -3.757  94.295 118.802  0.00  0.00    -0.368 OA
BRANCH   7   8
ATOM      8  C   LIG d   1      -4.237  93.870 120.101  0.00  0.00     0.119 C 
BRANCH   8   9
ATOM      9  C   LIG d   1      -5.471  94.728 120.442  0.00  0.00     0.028 C 
ATOM     10  C   LIG d   1      -5.693  95.865 119.430  0.00  0.00     0.006 C 
ENDBRANCH   8   9
BRANCH   8  11
ATOM     11  C   LIG d   1      -3.216  94.175 121.201  0.00  0.00     0.028 C 
ATOM     12  C   LIG d   1      -2.192  95.243 120.783  0.00  0.00     0.006 C 
ENDBRANCH   8  11
ENDBRANCH   7   8
ENDBRANCH   1   7
BRANCH   6  13
ATOM     13  N   LIG d   1      -1.260  92.705 118.235  0.00  0.00    -0.311 N 
ATOM     14  C   LIG d   1      -0.325  92.482 119.157  0.00  0.00     0.210 C 
ATOM     15  C   LIG d   1       1.027  93.147 118.881  0.00  0.00     0.109 C 
ATOM     16  O   LIG d   1      -0.478  91.769 120.160  0.00  0.00    -0.276 OA
ATOM     17  H   LIG d   1      -1.041  93.269 117.437  0.00  0.00     0.149 HD
ENDBRANCH   6  13
BRANCH   5  18
ATOM     18  N   LIG d   1      -1.992  89.743 118.078  0.00  0.00     0.381 N 
ATOM     19  H   LIG d   1      -1.678  89.158 117.330  0.00  0.00    -0.090 HD
ATOM     20  H   LIG d   1      -2.558  89.189 118.696  0.00  0.00    -0.090 HD
ATOM     21  H   LIG d   1      -1.209  90.111 118.573  0.00  0.00    -0.090 HD
ENDBRANCH   5  18
BRANCH   3  22
ATOM     22  C   LIG d   1      -6.376  91.052 116.663  0.00  0.00     0.382 C 
ATOM     23  O   LIG d   1      -6.522  89.893 116.206  0.00  0.00    -0.241 OA
ATOM     24  O   LIG d   1      -7.303  91.877 116.552  0.00  0.00    -0.241 OA
ENDBRANCH   3  22
TORSDOF 7
ENDMDL
MODEL 8
REMARK VINA RESULT:      -4.1      2.811      5.572
REMARK  7 active torsions:
REMARK  status: ('A' for Active; 'I' for Inactive)
REMARK    1  A    between atoms: C_2  and  C_3 
REMARK    2  A    between atoms: C_3  and  O_6 
REMARK    3  A    between atoms: C_3  and  C_4 
REMARK    4  A    between atoms: C_7  and  O_6 
REMARK    5  A    between atoms: C_9  and  C_10 
REMARK    6  A    between atoms: N_15  and  C_14 
REMARK    7  A    between atoms: N_20  and  C_19 
REMARK       I    between atoms: C_22  and  N_20 
ROOT
ATOM      1  C   LIG d   1      -1.934  91.363 117.691  0.00  0.00     0.161 C 
ATOM      2  C   LIG d   1      -0.599  91.486 118.113  0.00  0.00     0.016 C 
ATOM      3  C   LIG d   1      -0.031  92.704 118.553  0.00  0.00     0.038 C 
ATOM      4  C   LIG d   1      -0.807  93.857 118.744  0.00  0.00     0.028 C 
ATOM      5  C   LIG d   1      -2.043  93.911 117.853  0.00  0.00    -0.047 C 
ATOM      6  C   LIG d   1      -2.824  92.585 117.998  0.00  0.00     0.091 C 
ENDROOT
BRANCH   1   7
ATOM      7  O   LIG d   1      -2.514  90.167 118.248  0.00  0.00    -0.368 OA
BRANCH   7   8
ATOM      8  C   LIG d   1      -1.668  89.405 119.144  0.00  0.00     0.119 C 
BRANCH   8   9
ATOM      9  C   LIG d   1      -1.596  87.965 118.600  0.00  0.00     0.028 C 
ATOM     10  C   LIG d   1      -0.452  87.776 117.590  0.00  0.00     0.006 C 
ENDBRANCH   8   9
BRANCH   8  11
ATOM     11  C   LIG d   1      -2.297  89.283 120.535  0.00  0.00     0.028 C 
ATOM     12  C   LIG d   1      -2.115  90.549 121.385  0.00  0.00     0.006 C 
ENDBRANCH   8  11
ENDBRANCH   7   8
ENDBRANCH   1   7
BRANCH   6  13
ATOM     13  N   LIG d   1      -4.003  92.520 117.096  0.00  0.00    -0.311 N 
ATOM     14  C   LIG d   1      -5.227  92.901 117.460  0.00  0.00     0.210 C 
ATOM     15  C   LIG d   1      -6.303  92.733 116.383  0.00  0.00     0.109 C 
ATOM     16  O   LIG d   1      -5.516  93.393 118.561  0.00  0.00    -0.276 OA
ATOM     17  H   LIG d   1      -3.852  92.163 116.173  0.00  0.00     0.149 HD
ENDBRANCH   6  13
BRANCH   5  18
ATOM     18  N   LIG d   1      -2.830  95.092 118.253  0.00  0.00     0.381 N 
ATOM     19  H   LIG d   1      -2.664  95.843 117.613  0.00  0.00    -0.090 HD
ATOM     20  H   LIG d   1      -2.533  95.386 119.167  0.00  0.00    -0.090 HD
ATOM     21  H   LIG d   1      -3.800  94.867 118.268  0.00  0.00    -0.090 HD
ENDBRANCH   5  18
BRANCH   3  22
ATOM     22  C   LIG d   1       1.336  92.786 118.768  0.00  0.00     0.382 C 
ATOM     23  O   LIG d   1       2.135  92.403 117.879  0.00  0.00    -0.241 OA
ATOM     24  O   LIG d   1       1.781  93.197 119.856  0.00  0.00    -0.241 OA
ENDBRANCH   3  22
TORSDOF 7
ENDMDL
MODEL 9
REMARK VINA RESULT:      -4.0      2.907      5.942
REMARK  7 active torsions:
REMARK  status: ('A' for Active; 'I' for Inactive)
REMARK    1  A    between atoms: C_2  and  C_3 
REMARK    2  A    between atoms: C_3  and  O_6 
REMARK    3  A    between atoms: C_3  and  C_4 
REMARK    4  A    between atoms: C_7  and  O_6 
REMARK    5  A    between atoms: C_9  and  C_10 
REMARK    6  A    between atoms: N_15  and  C_14 
REMARK    7  A    between atoms: N_20  and  C_19 
REMARK       I    between atoms: C_22  and  N_20 
ROOT
ATOM      1  C   LIG d   1      -1.732  90.957 117.812  0.00  0.00     0.161 C 
ATOM      2  C   LIG d   1      -0.733  91.602 118.560  0.00  0.00     0.016 C 
ATOM      3  C   LIG d   1      -0.888  92.893 119.115  0.00  0.00     0.038 C 
ATOM      4  C   LIG d   1      -2.117  93.569 119.087  0.00  0.00     0.028 C 
ATOM      5  C   LIG d   1      -3.000  93.173 117.909  0.00  0.00    -0.047 C 
ATOM      6  C   LIG d   1      -3.118  91.632 117.866  0.00  0.00     0.091 C 
ENDROOT
BRANCH   1   7
ATOM      7  O   LIG d   1      -1.831  89.577 118.217  0.00  0.00    -0.368 OA
BRANCH   7   8
ATOM      8  C   LIG d   1      -0.609  88.965 118.698  0.00  0.00     0.119 C 
BRANCH   8   9
ATOM      9  C   LIG d   1       0.036  88.224 117.511  0.00  0.00     0.028 C 
ATOM     10  C   LIG d   1       0.286  86.737 117.813  0.00  0.00     0.006 C 
ENDBRANCH   8   9
BRANCH   8  11
ATOM     11  C   LIG d   1      -0.902  87.882 119.741  0.00  0.00     0.028 C 
ATOM     12  C   LIG d   1      -2.397  87.771 120.082  0.00  0.00     0.006 C 
ENDBRANCH   8  11
ENDBRANCH   7   8
ENDBRANCH   1   7
BRANCH   6  13
ATOM     13  N   LIG d   1      -3.897  91.156 116.693  0.00  0.00    -0.311 N 
ATOM     14  C   LIG d   1      -5.189  90.840 116.750  0.00  0.00     0.210 C 
ATOM     15  C   LIG d   1      -5.794  90.351 115.430  0.00  0.00     0.109 C 
ATOM     16  O   LIG d   1      -5.900  90.948 117.761  0.00  0.00    -0.276 OA
ATOM     17  H   LIG d   1      -3.406  91.069 115.825  0.00  0.00     0.149 HD
ENDBRANCH   6  13
BRANCH   5  18
ATOM     18  N   LIG d   1      -4.301  93.848 118.079  0.00  0.00     0.381 N 
ATOM     19  H   LIG d   1      -4.155  94.800 118.351  0.00  0.00    -0.090 HD
ATOM     20  H   LIG d   1      -4.813  93.387 118.810  0.00  0.00    -0.090 HD
ATOM     21  H   LIG d   1      -4.817  93.813 117.228  0.00  0.00    -0.090 HD
ENDBRANCH   5  18
BRANCH   3  22
ATOM     22  C   LIG d   1       0.206  93.538 119.672  0.00  0.00     0.382 C 
ATOM     23  O   LIG d   1       1.296  92.930 119.795  0.00  0.00    -0.241 OA
ATOM     24  O   LIG d   1       0.104  94.706 120.093  0.00  0.00    -0.241 OA
ENDBRANCH   3  22
TORSDOF 7
ENDMDL
