MODEL 1
REMARK VINA RESULT:      -5.5      0.000      0.000
REMARK  7 active torsions:
REMARK  status: ('A' for Active; 'I' for Inactive)
REMARK    1  A    between atoms: C_2  and  C_3 
REMARK    2  A    between atoms: C_3  and  O_6 
REMARK    3  A    between atoms: C_3  and  C_4 
REMARK    4  A    between atoms: C_7  and  O_6 
REMARK    5  A    between atoms: C_9  and  C_10 
REMARK    6  A    between atoms: N_15  and  C_14 
REMARK    7  A    between atoms: N_20  and  C_19 
REMARK       I    between atoms: C_22  and  N_20 
ROOT
ATOM      1  C   LIG d   1      -5.752  93.262 118.405  0.00  0.00     0.161 C 
ATOM      2  C   LIG d   1      -6.814  94.157 118.195  0.00  0.00     0.016 C 
ATOM      3  C   LIG d   1      -6.921  95.406 118.848  0.00  0.00     0.038 C 
ATOM      4  C   LIG d   1      -5.887  95.915 119.648  0.00  0.00     0.028 C 
ATOM      5  C   LIG d   1      -5.026  94.831 120.287  0.00  0.00    -0.047 C 
ATOM      6  C   LIG d   1      -4.559  93.848 119.189  0.00  0.00     0.091 C 
ENDROOT
BRANCH   1   7
ATOM      7  O   LIG d   1      -5.307  92.727 117.143  0.00  0.00    -0.368 OA
BRANCH   7   8
ATOM      8  C   LIG d   1      -5.861  91.442 116.765  0.00  0.00     0.119 C 
BRANCH   8   9
ATOM      9  C   LIG d   1      -4.747  90.649 116.055  0.00  0.00     0.028 C 
ATOM     10  C   LIG d   1      -3.492  90.488 116.929  0.00  0.00     0.006 C 
ENDBRANCH   8   9
BRANCH   8  11
ATOM     11  C   LIG d   1      -6.973  91.599 115.724  0.00  0.00     0.028 C 
ATOM     12  C   LIG d   1      -7.704  90.280 115.430  0.00  0.00     0.006 C 
ENDBRANCH   8  11
ENDBRANCH   7   8
ENDBRANCH   1   7
BRANCH   6  13
ATOM     13  N   LIG d   1      -3.781  92.709 119.741  0.00  0.00    -0.311 N 
ATOM     14  C   LIG d   1      -2.449  92.666 119.749  0.00  0.00     0.210 C 
ATOM     15  C   LIG d   1      -1.847  91.390 120.347  0.00  0.00     0.109 C 
ATOM     16  O   LIG d   1      -1.710  93.576 119.346  0.00  0.00    -0.276 OA
ATOM     17  H   LIG d   1      -4.301  91.940 120.117  0.00  0.00     0.149 HD
ENDBRANCH   6  13
BRANCH   5  18
ATOM     18  N   LIG d   1      -3.908  95.499 120.979  0.00  0.00     0.381 N 
ATOM     19  H   LIG d   1      -3.709  95.026 121.837  0.00  0.00    -0.090 HD
ATOM     20  H   LIG d   1      -4.176  96.443 121.194  0.00  0.00    -0.090 HD
ATOM     21  H   LIG d   1      -3.099  95.500 120.397  0.00  0.00    -0.090 HD
ENDBRANCH   5  18
BRANCH   3  22
ATOM     22  C   LIG d   1      -8.090  96.143 118.736  0.00  0.00     0.382 C 
ATOM     23  O   LIG d   1      -9.203  95.568 118.806  0.00  0.00    -0.241 OA
ATOM     24  O   LIG d   1      -8.046  97.369 118.521  0.00  0.00    -0.241 OA
ENDBRANCH   3  22
TORSDOF 7
ENDMDL
MODEL 2
REMARK VINA RESULT:      -5.3      2.396      5.161
REMARK  7 active torsions:
REMARK  status: ('A' for Active; 'I' for Inactive)
REMARK    1  A    between atoms: C_2  and  C_3 
REMARK    2  A    between atoms: C_3  and  O_6 
REMARK    3  A    between atoms: C_3  and  C_4 
REMARK    4  A    between atoms: C_7  and  O_6 
REMARK    5  A    between atoms: C_9  and  C_10 
REMARK    6  A    between atoms: N_15  and  C_14 
REMARK    7  A    between atoms: N_20  and  C_19 
REMARK       I    between atoms: C_22  and  N_20 
ROOT
ATOM      1  C   LIG d   1      -4.227  92.862 118.825  0.00  0.00     0.161 C 
ATOM      2  C   LIG d   1      -5.239  92.425 117.954  0.00  0.00     0.016 C 
ATOM      3  C   LIG d   1      -5.026  91.478 116.927  0.00  0.00     0.038 C 
ATOM      4  C   LIG d   1      -3.813  90.785 116.796  0.00  0.00     0.028 C 
ATOM      5  C   LIG d   1      -2.613  91.559 117.333  0.00  0.00    -0.047 C 
ATOM      6  C   LIG d   1      -2.925  92.036 118.770  0.00  0.00     0.091 C 
ENDROOT
BRANCH   1   7
ATOM      7  O   LIG d   1      -4.731  92.912 120.175  0.00  0.00    -0.368 OA
BRANCH   7   8
ATOM      8  C   LIG d   1      -4.939  94.234 120.729  0.00  0.00     0.119 C 
BRANCH   8   9
ATOM      9  C   LIG d   1      -6.426  94.590 120.533  0.00  0.00     0.028 C 
ATOM     10  C   LIG d   1      -6.639  95.625 119.416  0.00  0.00     0.006 C 
ENDBRANCH   8   9
BRANCH   8  11
ATOM     11  C   LIG d   1      -4.162  95.295 119.945  0.00  0.00     0.028 C 
ATOM     12  C   LIG d   1      -3.056  95.962 120.779  0.00  0.00     0.006 C 
ENDBRANCH   8  11
ENDBRANCH   7   8
ENDBRANCH   1   7
BRANCH   6  13
ATOM     13  N   LIG d   1      -1.836  92.873 119.338  0.00  0.00    -0.311 N 
ATOM     14  C   LIG d   1      -0.823  92.376 120.045  0.00  0.00     0.210 C 
ATOM     15  C   LIG d   1       0.180  93.416 120.555  0.00  0.00     0.109 C 
ATOM     16  O   LIG d   1      -0.642  91.170 120.271  0.00  0.00    -0.276 OA
ATOM     17  H   LIG d   1      -1.888  93.859 119.176  0.00  0.00     0.149 HD
ENDBRANCH   6  13
BRANCH   5  18
ATOM     18  N   LIG d   1      -1.440  90.668 117.260  0.00  0.00     0.381 N 
ATOM     19  H   LIG d   1      -1.507  90.085 116.450  0.00  0.00    -0.090 HD
ATOM     20  H   LIG d   1      -1.430  90.078 118.074  0.00  0.00    -0.090 HD
ATOM     21  H   LIG d   1      -0.604  91.208 117.222  0.00  0.00    -0.090 HD
ENDBRANCH   5  18
BRANCH   3  22
ATOM     22  C   LIG d   1      -6.022  91.244 115.991  0.00  0.00     0.382 C 
ATOM     23  O   LIG d   1      -6.595  92.209 115.430  0.00  0.00    -0.241 OA
ATOM     24  O   LIG d   1      -6.385  90.081 115.732  0.00  0.00    -0.241 OA
ENDBRANCH   3  22
TORSDOF 7
ENDMDL
MODEL 3
REMARK VINA RESULT:      -5.2      2.347      4.934
REMARK  7 active torsions:
REMARK  status: ('A' for Active; 'I' for Inactive)
REMARK    1  A    between atoms: C_2  and  C_3 
REMARK    2  A    between atoms: C_3  and  O_6 
REMARK    3  A    between atoms: C_3  and  C_4 
REMARK    4  A    between atoms: C_7  and  O_6 
REMARK    5  A    between atoms: C_9  and  C_10 
REMARK    6  A    between atoms: N_15  and  C_14 
REMARK    7  A    between atoms: N_20  and  C_19 
REMARK       I    between atoms: C_22  and  N_20 
ROOT
ATOM      1  C   LIG d   1      -4.390  92.985 118.665  0.00  0.00     0.161 C 
ATOM      2  C   LIG d   1      -5.397  92.507 117.811  0.00  0.00     0.016 C 
ATOM      3  C   LIG d   1      -5.183  91.498 116.844  0.00  0.00     0.038 C 
ATOM      4  C   LIG d   1      -3.976  90.787 116.768  0.00  0.00     0.028 C 
ATOM      5  C   LIG d   1      -2.774  91.580 117.270  0.00  0.00    -0.047 C 
ATOM      6  C   LIG d   1      -3.096  92.144 118.673  0.00  0.00     0.091 C 
ENDROOT
BRANCH   1   7
ATOM      7  O   LIG d   1      -4.907  93.120 120.004  0.00  0.00    -0.368 OA
BRANCH   7   8
ATOM      8  C   LIG d   1      -5.064  94.475 120.493  0.00  0.00     0.119 C 
BRANCH   8   9
ATOM      9  C   LIG d   1      -4.122  94.642 121.701  0.00  0.00     0.028 C 
ATOM     10  C   LIG d   1      -3.789  93.302 122.376  0.00  0.00     0.006 C 
ENDBRANCH   8   9
BRANCH   8  11
ATOM     11  C   LIG d   1      -6.474  94.709 121.043  0.00  0.00     0.028 C 
ATOM     12  C   LIG d   1      -7.538  94.797 119.937  0.00  0.00     0.006 C 
ENDBRANCH   8  11
ENDBRANCH   7   8
ENDBRANCH   1   7
BRANCH   6  13
ATOM     13  N   LIG d   1      -2.004  93.004 119.202  0.00  0.00    -0.311 N 
ATOM     14  C   LIG d   1      -1.014  92.544 119.965  0.00  0.00     0.210 C 
ATOM     15  C   LIG d   1      -0.004  93.602 120.420  0.00  0.00     0.109 C 
ATOM     16  O   LIG d   1      -0.858  91.355 120.281  0.00  0.00    -0.276 OA
ATOM     17  H   LIG d   1      -2.036  93.977 118.968  0.00  0.00     0.149 HD
ENDBRANCH   6  13
BRANCH   5  18
ATOM     18  N   LIG d   1      -1.609  90.675 117.264  0.00  0.00     0.381 N 
ATOM     19  H   LIG d   1      -0.862  91.089 116.743  0.00  0.00    -0.090 HD
ATOM     20  H   LIG d   1      -1.868  89.815 116.815  0.00  0.00    -0.090 HD
ATOM     21  H   LIG d   1      -1.312  90.495 118.198  0.00  0.00    -0.090 HD
ENDBRANCH   5  18
BRANCH   3  22
ATOM     22  C   LIG d   1      -6.172  91.218 115.913  0.00  0.00     0.382 C 
ATOM     23  O   LIG d   1      -6.860  92.149 115.430  0.00  0.00    -0.241 OA
ATOM     24  O   LIG d   1      -6.413  90.041 115.582  0.00  0.00    -0.241 OA
ENDBRANCH   3  22
TORSDOF 7
ENDMDL
MODEL 4
REMARK VINA RESULT:      -5.1      2.378      6.319
REMARK  7 active torsions:
REMARK  status: ('A' for Active; 'I' for Inactive)
REMARK    1  A    between atoms: C_2  and  C_3 
REMARK    2  A    between atoms: C_3  and  O_6 
REMARK    3  A    between atoms: C_3  and  C_4 
REMARK    4  A    between atoms: C_7  and  O_6 
REMARK    5  A    between atoms: C_9  and  C_10 
REMARK    6  A    between atoms: N_15  and  C_14 
REMARK    7  A    between atoms: N_20  and  C_19 
REMARK       I    between atoms: C_22  and  N_20 
ROOT
ATOM      1  C   LIG d   1      -4.048  92.794 119.363  0.00  0.00     0.161 C 
ATOM      2  C   LIG d   1      -2.796  92.786 120.000  0.00  0.00     0.016 C 
ATOM      3  C   LIG d   1      -1.708  91.993 119.568  0.00  0.00     0.038 C 
ATOM      4  C   LIG d   1      -1.752  91.262 118.371  0.00  0.00     0.028 C 
ATOM      5  C   LIG d   1      -3.163  90.844 117.969  0.00  0.00    -0.047 C 
ATOM      6  C   LIG d   1      -4.080  92.088 117.992  0.00  0.00     0.091 C 
ENDROOT
BRANCH   1   7
ATOM      7  O   LIG d   1      -4.526  94.148 119.241  0.00  0.00    -0.368 OA
BRANCH   7   8
ATOM      8  C   LIG d   1      -5.718  94.474 119.997  0.00  0.00     0.119 C 
BRANCH   8   9
ATOM      9  C   LIG d   1      -6.633  95.309 119.080  0.00  0.00     0.028 C 
ATOM     10  C   LIG d   1      -7.858  94.516 118.594  0.00  0.00     0.006 C 
ENDBRANCH   8   9
BRANCH   8  11
ATOM     11  C   LIG d   1      -5.393  95.385 121.184  0.00  0.00     0.028 C 
ATOM     12  C   LIG d   1      -4.767  96.722 120.756  0.00  0.00     0.006 C 
ENDBRANCH   8  11
ENDBRANCH   7   8
ENDBRANCH   1   7
BRANCH   6  13
ATOM     13  N   LIG d   1      -5.497  91.753 117.692  0.00  0.00    -0.311 N 
ATOM     14  C   LIG d   1      -6.012  91.776 116.464  0.00  0.00     0.210 C 
ATOM     15  C   LIG d   1      -7.498  91.416 116.378  0.00  0.00     0.109 C 
ATOM     16  O   LIG d   1      -5.371  92.030 115.433  0.00  0.00    -0.276 OA
ATOM     17  H   LIG d   1      -6.081  91.505 118.466  0.00  0.00     0.149 HD
ENDBRANCH   6  13
BRANCH   5  18
ATOM     18  N   LIG d   1      -3.078  90.212 116.639  0.00  0.00     0.381 N 
ATOM     19  H   LIG d   1      -2.183  89.780 116.526  0.00  0.00    -0.090 HD
ATOM     20  H   LIG d   1      -3.176  90.923 115.935  0.00  0.00    -0.090 HD
ATOM     21  H   LIG d   1      -3.799  89.532 116.538  0.00  0.00    -0.090 HD
ENDBRANCH   5  18
BRANCH   3  22
ATOM     22  C   LIG d   1      -0.573  91.895 120.358  0.00  0.00     0.382 C 
ATOM     23  O   LIG d   1      -0.438  92.641 121.358  0.00  0.00    -0.241 OA
ATOM     24  O   LIG d   1       0.338  91.100 120.059  0.00  0.00    -0.241 OA
ENDBRANCH   3  22
TORSDOF 7
ENDMDL
MODEL 5
REMARK VINA RESULT:      -4.8      2.783      5.121
REMARK  7 active torsions:
REMARK  status: ('A' for Active; 'I' for Inactive)
REMARK    1  A    between atoms: C_2  and  C_3 
REMARK    2  A    between atoms: C_3  and  O_6 
REMARK    3  A    between atoms: C_3  and  C_4 
REMARK    4  A    between atoms: C_7  and  O_6 
REMARK    5  A    between atoms: C_9  and  C_10 
REMARK    6  A    between atoms: N_15  and  C_14 
REMARK    7  A    between atoms: N_20  and  C_19 
REMARK       I    between atoms: C_22  and  N_20 
ROOT
ATOM      1  C   LIG d   1      -3.071  92.059 118.372  0.00  0.00     0.161 C 
ATOM      2  C   LIG d   1      -3.607  91.339 117.291  0.00  0.00     0.016 C 
ATOM      3  C   LIG d   1      -4.924  91.521 116.812  0.00  0.00     0.038 C 
ATOM      4  C   LIG d   1      -5.751  92.549 117.288  0.00  0.00     0.028 C 
ATOM      5  C   LIG d   1      -5.433  92.968 118.720  0.00  0.00    -0.047 C 
ATOM      6  C   LIG d   1      -3.920  93.262 118.832  0.00  0.00     0.091 C 
ENDROOT
BRANCH   1   7
ATOM      7  O   LIG d   1      -1.729  92.483 118.059  0.00  0.00    -0.368 OA
BRANCH   7   8
ATOM      8  C   LIG d   1      -0.677  91.527 118.337  0.00  0.00     0.119 C 
BRANCH   8   9
ATOM      9  C   LIG d   1      -0.093  91.872 119.721  0.00  0.00     0.028 C 
ATOM     10  C   LIG d   1       0.373  93.335 119.814  0.00  0.00     0.006 C 
ENDBRANCH   8   9
BRANCH   8  11
ATOM     11  C   LIG d   1       0.488  91.679 117.355  0.00  0.00     0.028 C 
ATOM     12  C   LIG d   1       1.010  90.330 116.837  0.00  0.00     0.006 C 
ENDBRANCH   8  11
ENDBRANCH   7   8
ENDBRANCH   1   7
BRANCH   6  13
ATOM     13  N   LIG d   1      -3.509  93.598 120.220  0.00  0.00    -0.311 N 
ATOM     14  C   LIG d   1      -2.827  94.697 120.538  0.00  0.00     0.210 C 
ATOM     15  C   LIG d   1      -2.487  94.841 122.024  0.00  0.00     0.109 C 
ATOM     16  O   LIG d   1      -2.499  95.583 119.734  0.00  0.00    -0.276 OA
ATOM     17  H   LIG d   1      -3.762  92.949 120.940  0.00  0.00     0.149 HD
ENDBRANCH   6  13
BRANCH   5  18
ATOM     18  N   LIG d   1      -6.275  94.136 119.040  0.00  0.00     0.381 N 
ATOM     19  H   LIG d   1      -7.228  93.941 118.806  0.00  0.00    -0.090 HD
ATOM     20  H   LIG d   1      -5.969  94.918 118.488  0.00  0.00    -0.090 HD
ATOM     21  H   LIG d   1      -6.201  94.355 120.009  0.00  0.00    -0.090 HD
ENDBRANCH   5  18
BRANCH   3  22
ATOM     22  C   LIG d   1      -5.441  90.642 115.872  0.00  0.00     0.382 C 
ATOM     23  O   LIG d   1      -6.633  90.756 115.496  0.00  0.00    -0.241 OA
ATOM     24  O   LIG d   1      -4.745  89.709 115.430  0.00  0.00    -0.241 OA
ENDBRANCH   3  22
TORSDOF 7
ENDMDL
MODEL 6
REMARK VINA RESULT:      -4.6      1.478      2.395
REMARK  7 active torsions:
REMARK  status: ('A' for Active; 'I' for Inactive)
REMARK    1  A    between atoms: C_2  and  C_3 
REMARK    2  A    between atoms: C_3  and  O_6 
REMARK    3  A    between atoms: C_3  and  C_4 
REMARK    4  A    between atoms: C_7  and  O_6 
REMARK    5  A    between atoms: C_9  and  C_10 
REMARK    6  A    between atoms: N_15  and  C_14 
REMARK    7  A    between atoms: N_20  and  C_19 
REMARK       I    between atoms: C_22  and  N_20 
ROOT
ATOM      1  C   LIG d   1      -5.106  93.204 119.104  0.00  0.00     0.161 C 
ATOM      2  C   LIG d   1      -6.046  94.111 118.587  0.00  0.00     0.016 C 
ATOM      3  C   LIG d   1      -6.750  95.042 119.385  0.00  0.00     0.038 C 
ATOM      4  C   LIG d   1      -6.448  95.234 120.741  0.00  0.00     0.028 C 
ATOM      5  C   LIG d   1      -5.864  93.995 121.413  0.00  0.00    -0.047 C 
ATOM      6  C   LIG d   1      -4.682  93.474 120.563  0.00  0.00     0.091 C 
ENDROOT
BRANCH   1   7
ATOM      7  O   LIG d   1      -3.949  93.158 118.246  0.00  0.00    -0.368 OA
BRANCH   7   8
ATOM      8  C   LIG d   1      -3.880  92.040 117.327  0.00  0.00     0.119 C 
BRANCH   8   9
ATOM      9  C   LIG d   1      -5.307  91.478 117.175  0.00  0.00     0.028 C 
ATOM     10  C   LIG d   1      -5.854  91.646 115.747  0.00  0.00     0.006 C 
ENDBRANCH   8   9
BRANCH   8  11
ATOM     11  C   LIG d   1      -3.052  90.891 117.909  0.00  0.00     0.028 C 
ATOM     12  C   LIG d   1      -1.558  91.233 118.028  0.00  0.00     0.006 C 
ENDBRANCH   8  11
ENDBRANCH   7   8
ENDBRANCH   1   7
BRANCH   6  13
ATOM     13  N   LIG d   1      -4.107  92.215 121.104  0.00  0.00    -0.311 N 
ATOM     14  C   LIG d   1      -2.827  92.082 121.449  0.00  0.00     0.210 C 
ATOM     15  C   LIG d   1      -2.437  90.694 121.966  0.00  0.00     0.109 C 
ATOM     16  O   LIG d   1      -1.985  92.992 121.406  0.00  0.00    -0.276 OA
ATOM     17  H   LIG d   1      -4.727  91.435 121.202  0.00  0.00     0.149 HD
ENDBRANCH   6  13
BRANCH   5  18
ATOM     18  N   LIG d   1      -5.468  94.375 122.782  0.00  0.00     0.381 N 
ATOM     19  H   LIG d   1      -6.280  94.608 123.317  0.00  0.00    -0.090 HD
ATOM     20  H   LIG d   1      -4.877  95.187 122.736  0.00  0.00    -0.090 HD
ATOM     21  H   LIG d   1      -4.979  93.624 123.216  0.00  0.00    -0.090 HD
ENDBRANCH   5  18
BRANCH   3  22
ATOM     22  C   LIG d   1      -7.796  95.766 118.835  0.00  0.00     0.382 C 
ATOM     23  O   LIG d   1      -8.919  95.227 118.680  0.00  0.00    -0.241 OA
ATOM     24  O   LIG d   1      -7.621  96.938 118.451  0.00  0.00    -0.241 OA
ENDBRANCH   3  22
TORSDOF 7
ENDMDL
MODEL 7
REMARK VINA RESULT:      -4.6      1.832      5.119
REMARK  7 active torsions:
REMARK  status: ('A' for Active; 'I' for Inactive)
REMARK    1  A    between atoms: C_2  and  C_3 
REMARK    2  A    between atoms: C_3  and  O_6 
REMARK    3  A    between atoms: C_3  and  C_4 
REMARK    4  A    between atoms: C_7  and  O_6 
REMARK    5  A    between atoms: C_9  and  C_10 
REMARK    6  A    between atoms: N_15  and  C_14 
REMARK    7  A    between atoms: N_20  and  C_19 
REMARK       I    between atoms: C_22  and  N_20 
ROOT
ATOM      1  C   LIG d   1      -3.553  93.858 118.847  0.00  0.00     0.161 C 
ATOM      2  C   LIG d   1      -2.206  93.625 119.171  0.00  0.00     0.016 C 
ATOM      3  C   LIG d   1      -1.524  94.310 120.203  0.00  0.00     0.038 C 
ATOM      4  C   LIG d   1      -2.190  95.173 121.086  0.00  0.00     0.028 C 
ATOM      5  C   LIG d   1      -3.432  95.819 120.481  0.00  0.00    -0.047 C 
ATOM      6  C   LIG d   1      -4.326  94.714 119.871  0.00  0.00     0.091 C 
ENDROOT
BRANCH   1   7
ATOM      7  O   LIG d   1      -4.228  92.602 118.633  0.00  0.00    -0.368 OA
BRANCH   7   8
ATOM      8  C   LIG d   1      -4.621  92.314 117.268  0.00  0.00     0.119 C 
BRANCH   8   9
ATOM      9  C   LIG d   1      -6.161  92.340 117.215  0.00  0.00     0.028 C 
ATOM     10  C   LIG d   1      -6.706  91.957 115.829  0.00  0.00     0.006 C 
ENDBRANCH   8   9
BRANCH   8  11
ATOM     11  C   LIG d   1      -4.224  90.892 116.862  0.00  0.00     0.028 C 
ATOM     12  C   LIG d   1      -2.841  90.485 117.393  0.00  0.00     0.006 C 
ENDBRANCH   8  11
ENDBRANCH   7   8
ENDBRANCH   1   7
BRANCH   6  13
ATOM     13  N   LIG d   1      -5.522  95.268 119.184  0.00  0.00    -0.311 N 
ATOM     14  C   LIG d   1      -6.767  95.085 119.619  0.00  0.00     0.210 C 
ATOM     15  C   LIG d   1      -7.855  95.724 118.750  0.00  0.00     0.109 C 
ATOM     16  O   LIG d   1      -7.072  94.481 120.658  0.00  0.00    -0.276 OA
ATOM     17  H   LIG d   1      -5.363  95.797 118.349  0.00  0.00     0.149 HD
ENDBRANCH   6  13
BRANCH   5  18
ATOM     18  N   LIG d   1      -4.104  96.582 121.550  0.00  0.00     0.381 N 
ATOM     19  H   LIG d   1      -4.056  96.073 122.410  0.00  0.00    -0.090 HD
ATOM     20  H   LIG d   1      -5.072  96.699 121.306  0.00  0.00    -0.090 HD
ATOM     21  H   LIG d   1      -3.670  97.472 121.657  0.00  0.00    -0.090 HD
ENDBRANCH   5  18
BRANCH   3  22
ATOM     22  C   LIG d   1      -0.151  94.166 120.334  0.00  0.00     0.382 C 
ATOM     23  O   LIG d   1       0.494  93.510 119.480  0.00  0.00    -0.241 OA
ATOM     24  O   LIG d   1       0.443  94.644 121.318  0.00  0.00    -0.241 OA
ENDBRANCH   3  22
TORSDOF 7
ENDMDL
MODEL 8
REMARK VINA RESULT:      -4.6      4.106      6.757
REMARK  7 active torsions:
REMARK  status: ('A' for Active; 'I' for Inactive)
REMARK    1  A    between atoms: C_2  and  C_3 
REMARK    2  A    between atoms: C_3  and  O_6 
REMARK    3  A    between atoms: C_3  and  C_4 
REMARK    4  A    between atoms: C_7  and  O_6 
REMARK    5  A    between atoms: C_9  and  C_10 
REMARK    6  A    between atoms: N_15  and  C_14 
REMARK    7  A    between atoms: N_20  and  C_19 
REMARK       I    between atoms: C_22  and  N_20 
ROOT
ATOM      1  C   LIG d   1       0.010  91.119 118.570  0.00  0.00     0.161 C 
ATOM      2  C   LIG d   1      -1.098  91.101 117.707  0.00  0.00     0.016 C 
ATOM      3  C   LIG d   1      -2.424  91.336 118.138  0.00  0.00     0.038 C 
ATOM      4  C   LIG d   1      -2.715  91.756 119.444  0.00  0.00     0.028 C 
ATOM      5  C   LIG d   1      -1.687  91.297 120.472  0.00  0.00    -0.047 C 
ATOM      6  C   LIG d   1      -0.275  91.685 119.977  0.00  0.00     0.091 C 
ENDROOT
BRANCH   1   7
ATOM      7  O   LIG d   1       1.099  91.834 117.953  0.00  0.00    -0.368 OA
BRANCH   7   8
ATOM      8  C   LIG d   1       2.064  91.029 117.233  0.00  0.00     0.119 C 
BRANCH   8   9
ATOM      9  C   LIG d   1       2.094  89.639 117.897  0.00  0.00     0.028 C 
ATOM     10  C   LIG d   1       2.187  88.499 116.869  0.00  0.00     0.006 C 
ENDBRANCH   8   9
BRANCH   8  11
ATOM     11  C   LIG d   1       3.482  91.585 117.391  0.00  0.00     0.028 C 
ATOM     12  C   LIG d   1       4.150  91.148 118.705  0.00  0.00     0.006 C 
ENDBRANCH   8  11
ENDBRANCH   7   8
ENDBRANCH   1   7
BRANCH   6  13
ATOM     13  N   LIG d   1       0.797  91.198 120.883  0.00  0.00    -0.311 N 
ATOM     14  C   LIG d   1       1.777  91.974 121.343  0.00  0.00     0.210 C 
ATOM     15  C   LIG d   1       2.791  91.267 122.249  0.00  0.00     0.109 C 
ATOM     16  O   LIG d   1       1.885  93.188 121.113  0.00  0.00    -0.276 OA
ATOM     17  H   LIG d   1       0.769  90.232 121.146  0.00  0.00     0.149 HD
ENDBRANCH   6  13
BRANCH   5  18
ATOM     18  N   LIG d   1      -2.038  91.919 121.763  0.00  0.00     0.381 N 
ATOM     19  H   LIG d   1      -2.495  91.249 122.349  0.00  0.00    -0.090 HD
ATOM     20  H   LIG d   1      -2.675  92.677 121.595  0.00  0.00    -0.090 HD
ATOM     21  H   LIG d   1      -1.216  92.258 122.212  0.00  0.00    -0.090 HD
ENDBRANCH   5  18
BRANCH   3  22
ATOM     22  C   LIG d   1      -3.480  91.111 117.268  0.00  0.00     0.382 C 
ATOM     23  O   LIG d   1      -3.705  89.953 116.840  0.00  0.00    -0.241 OA
ATOM     24  O   LIG d   1      -4.183  92.059 116.869  0.00  0.00    -0.241 OA
ENDBRANCH   3  22
TORSDOF 7
ENDMDL
MODEL 9
REMARK VINA RESULT:      -4.5      2.358      6.098
REMARK  7 active torsions:
REMARK  status: ('A' for Active; 'I' for Inactive)
REMARK    1  A    between atoms: C_2  and  C_3 
REMARK    2  A    between atoms: C_3  and  O_6 
REMARK    3  A    between atoms: C_3  and  C_4 
REMARK    4  A    between atoms: C_7  and  O_6 
REMARK    5  A    between atoms: C_9  and  C_10 
REMARK    6  A    between atoms: N_15  and  C_14 
REMARK    7  A    between atoms: N_20  and  C_19 
REMARK       I    between atoms: C_22  and  N_20 
ROOT
ATOM      1  C   LIG d   1      -4.125  93.307 119.735  0.00  0.00     0.161 C 
ATOM      2  C   LIG d   1      -3.308  92.406 119.032  0.00  0.00     0.016 C 
ATOM      3  C   LIG d   1      -3.720  91.734 117.859  0.00  0.00     0.038 C 
ATOM      4  C   LIG d   1      -4.933  92.034 117.220  0.00  0.00     0.028 C 
ATOM      5  C   LIG d   1      -6.002  92.565 118.168  0.00  0.00    -0.047 C 
ATOM      6  C   LIG d   1      -5.409  93.731 118.991  0.00  0.00     0.091 C 
ENDROOT
BRANCH   1   7
ATOM      7  O   LIG d   1      -3.359  94.468 120.114  0.00  0.00    -0.368 OA
BRANCH   7   8
ATOM      8  C   LIG d   1      -1.920  94.349 119.995  0.00  0.00     0.119 C 
BRANCH   8   9
ATOM      9  C   LIG d   1      -1.302  94.880 121.303  0.00  0.00     0.028 C 
ATOM     10  C   LIG d   1      -1.068  93.765 122.336  0.00  0.00     0.006 C 
ENDBRANCH   8   9
BRANCH   8  11
ATOM     11  C   LIG d   1      -1.375  95.258 118.890  0.00  0.00     0.028 C 
ATOM     12  C   LIG d   1      -0.616  94.484 117.801  0.00  0.00     0.006 C 
ENDBRANCH   8  11
ENDBRANCH   7   8
ENDBRANCH   1   7
BRANCH   6  13
ATOM     13  N   LIG d   1      -6.363  94.254 120.003  0.00  0.00    -0.311 N 
ATOM     14  C   LIG d   1      -7.168  95.292 119.784  0.00  0.00     0.210 C 
ATOM     15  C   LIG d   1      -8.060  95.680 120.968  0.00  0.00     0.109 C 
ATOM     16  O   LIG d   1      -7.252  95.908 118.711  0.00  0.00    -0.276 OA
ATOM     17  H   LIG d   1      -6.384  93.793 120.892  0.00  0.00     0.149 HD
ENDBRANCH   6  13
BRANCH   5  18
ATOM     18  N   LIG d   1      -7.163  92.966 117.351  0.00  0.00     0.381 N 
ATOM     19  H   LIG d   1      -6.863  93.186 116.422  0.00  0.00    -0.090 HD
ATOM     20  H   LIG d   1      -7.575  93.790 117.753  0.00  0.00    -0.090 HD
ATOM     21  H   LIG d   1      -7.833  92.229 117.326  0.00  0.00    -0.090 HD
ENDBRANCH   5  18
BRANCH   3  22
ATOM     22  C   LIG d   1      -2.933  90.719 117.335  0.00  0.00     0.382 C 
ATOM     23  O   LIG d   1      -1.684  90.784 117.428  0.00  0.00    -0.241 OA
ATOM     24  O   LIG d   1      -3.454  89.762 116.733  0.00  0.00    -0.241 OA
ENDBRANCH   3  22
TORSDOF 7
ENDMDL
