MODEL 1
REMARK VINA RESULT:      -4.9      0.000      0.000
REMARK  7 active torsions:
REMARK  status: ('A' for Active; 'I' for Inactive)
REMARK    1  A    between atoms: C_2  and  C_3 
REMARK    2  A    between atoms: C_3  and  O_6 
REMARK    3  A    between atoms: C_3  and  C_4 
REMARK    4  A    between atoms: C_7  and  O_6 
REMARK    5  A    between atoms: C_9  and  C_10 
REMARK    6  A    between atoms: N_15  and  C_14 
REMARK    7  A    between atoms: N_20  and  C_19 
REMARK       I    between atoms: C_22  and  N_20 
ROOT
ATOM      1  C   LIG d   1      -2.728  91.703 118.039  0.00  0.00     0.161 C 
ATOM      2  C   LIG d   1      -3.260  90.658 117.266  0.00  0.00     0.016 C 
ATOM      3  C   LIG d   1      -4.542  90.704 116.671  0.00  0.00     0.038 C 
ATOM      4  C   LIG d   1      -5.323  91.870 116.683  0.00  0.00     0.028 C 
ATOM      5  C   LIG d   1      -5.042  92.775 117.878  0.00  0.00    -0.047 C 
ATOM      6  C   LIG d   1      -3.520  93.026 117.970  0.00  0.00     0.091 C 
ENDROOT
BRANCH   1   7
ATOM      7  O   LIG d   1      -1.350  91.925 117.678  0.00  0.00    -0.368 OA
BRANCH   7   8
ATOM      8  C   LIG d   1      -0.364  91.564 118.677  0.00  0.00     0.119 C 
BRANCH   8   9
ATOM      9  C   LIG d   1       0.760  92.616 118.618  0.00  0.00     0.028 C 
ATOM     10  C   LIG d   1       1.009  93.285 119.980  0.00  0.00     0.006 C 
ENDBRANCH   8   9
BRANCH   8  11
ATOM     11  C   LIG d   1       0.309  90.231 118.338  0.00  0.00     0.028 C 
ATOM     12  C   LIG d   1       0.496  90.024 116.826  0.00  0.00     0.006 C 
ENDBRANCH   8  11
ENDBRANCH   7   8
ENDBRANCH   1   7
BRANCH   6  13
ATOM     13  N   LIG d   1      -3.150  93.834 119.161  0.00  0.00    -0.311 N 
ATOM     14  C   LIG d   1      -2.263  94.828 119.126  0.00  0.00     0.210 C 
ATOM     15  C   LIG d   1      -2.013  95.518 120.471  0.00  0.00     0.109 C 
ATOM     16  O   LIG d   1      -1.685  95.224 118.103  0.00  0.00    -0.276 OA
ATOM     17  H   LIG d   1      -3.595  93.601 120.027  0.00  0.00     0.149 HD
ENDBRANCH   6  13
BRANCH   5  18
ATOM     18  N   LIG d   1      -5.822  94.013 117.692  0.00  0.00     0.381 N 
ATOM     19  H   LIG d   1      -6.543  94.066 118.383  0.00  0.00    -0.090 HD
ATOM     20  H   LIG d   1      -6.255  93.991 116.786  0.00  0.00    -0.090 HD
ATOM     21  H   LIG d   1      -5.224  94.807 117.764  0.00  0.00    -0.090 HD
ENDBRANCH   5  18
BRANCH   3  22
ATOM     22  C   LIG d   1      -5.072  89.562 116.090  0.00  0.00     0.382 C 
ATOM     23  O   LIG d   1      -6.280  89.273 116.263  0.00  0.00    -0.241 OA
ATOM     24  O   LIG d   1      -4.346  88.795 115.430  0.00  0.00    -0.241 OA
ENDBRANCH   3  22
TORSDOF 7
ENDMDL
MODEL 2
REMARK VINA RESULT:      -4.8      1.823      2.909
REMARK  7 active torsions:
REMARK  status: ('A' for Active; 'I' for Inactive)
REMARK    1  A    between atoms: C_2  and  C_3 
REMARK    2  A    between atoms: C_3  and  O_6 
REMARK    3  A    between atoms: C_3  and  C_4 
REMARK    4  A    between atoms: C_7  and  O_6 
REMARK    5  A    between atoms: C_9  and  C_10 
REMARK    6  A    between atoms: N_15  and  C_14 
REMARK    7  A    between atoms: N_20  and  C_19 
REMARK       I    between atoms: C_22  and  N_20 
ROOT
ATOM      1  C   LIG d   1      -2.481  90.506 117.733  0.00  0.00     0.161 C 
ATOM      2  C   LIG d   1      -3.602  90.124 116.977  0.00  0.00     0.016 C 
ATOM      3  C   LIG d   1      -4.677  90.995 116.686  0.00  0.00     0.038 C 
ATOM      4  C   LIG d   1      -4.633  92.360 117.005  0.00  0.00     0.028 C 
ATOM      5  C   LIG d   1      -3.750  92.673 118.208  0.00  0.00    -0.047 C 
ATOM      6  C   LIG d   1      -2.364  92.022 117.995  0.00  0.00     0.091 C 
ENDROOT
BRANCH   1   7
ATOM      7  O   LIG d   1      -1.280  90.011 117.110  0.00  0.00    -0.368 OA
BRANCH   7   8
ATOM      8  C   LIG d   1      -0.646  88.880 117.756  0.00  0.00     0.119 C 
BRANCH   8   9
ATOM      9  C   LIG d   1      -0.922  87.637 116.888  0.00  0.00     0.028 C 
ATOM     10  C   LIG d   1       0.357  87.072 116.248  0.00  0.00     0.006 C 
ENDBRANCH   8   9
BRANCH   8  11
ATOM     11  C   LIG d   1      -1.291  88.579 119.112  0.00  0.00     0.028 C 
ATOM     12  C   LIG d   1      -2.055  87.246 119.126  0.00  0.00     0.006 C 
ENDBRANCH   8  11
ENDBRANCH   7   8
ENDBRANCH   1   7
BRANCH   6  13
ATOM     13  N   LIG d   1      -1.465  92.208 119.164  0.00  0.00    -0.311 N 
ATOM     14  C   LIG d   1      -0.624  93.234 119.286  0.00  0.00     0.210 C 
ATOM     15  C   LIG d   1       0.227  93.224 120.560  0.00  0.00     0.109 C 
ATOM     16  O   LIG d   1      -0.525  94.168 118.476  0.00  0.00    -0.276 OA
ATOM     17  H   LIG d   1      -1.503  91.514 119.884  0.00  0.00     0.149 HD
ENDBRANCH   6  13
BRANCH   5  18
ATOM     18  N   LIG d   1      -3.685  94.140 118.344  0.00  0.00     0.381 N 
ATOM     19  H   LIG d   1      -4.335  94.568 117.715  0.00  0.00    -0.090 HD
ATOM     20  H   LIG d   1      -2.761  94.449 118.101  0.00  0.00    -0.090 HD
ATOM     21  H   LIG d   1      -3.896  94.405 119.281  0.00  0.00    -0.090 HD
ENDBRANCH   5  18
BRANCH   3  22
ATOM     22  C   LIG d   1      -5.830  90.491 116.102  0.00  0.00     0.382 C 
ATOM     23  O   LIG d   1      -6.108  89.273 116.212  0.00  0.00    -0.241 OA
ATOM     24  O   LIG d   1      -6.573  91.232 115.430  0.00  0.00    -0.241 OA
ENDBRANCH   3  22
TORSDOF 7
ENDMDL
MODEL 3
REMARK VINA RESULT:      -4.8      1.268      1.642
REMARK  7 active torsions:
REMARK  status: ('A' for Active; 'I' for Inactive)
REMARK    1  A    between atoms: C_2  and  C_3 
REMARK    2  A    between atoms: C_3  and  O_6 
REMARK    3  A    between atoms: C_3  and  C_4 
REMARK    4  A    between atoms: C_7  and  O_6 
REMARK    5  A    between atoms: C_9  and  C_10 
REMARK    6  A    between atoms: N_15  and  C_14 
REMARK    7  A    between atoms: N_20  and  C_19 
REMARK       I    between atoms: C_22  and  N_20 
ROOT
ATOM      1  C   LIG d   1      -2.488  91.199 117.907  0.00  0.00     0.161 C 
ATOM      2  C   LIG d   1      -3.448  90.565 117.101  0.00  0.00     0.016 C 
ATOM      3  C   LIG d   1      -4.684  91.155 116.752  0.00  0.00     0.038 C 
ATOM      4  C   LIG d   1      -4.982  92.490 117.063  0.00  0.00     0.028 C 
ATOM      5  C   LIG d   1      -4.258  92.999 118.304  0.00  0.00    -0.047 C 
ATOM      6  C   LIG d   1      -2.748  92.699 118.163  0.00  0.00     0.091 C 
ENDROOT
BRANCH   1   7
ATOM      7  O   LIG d   1      -1.174  91.007 117.345  0.00  0.00    -0.368 OA
BRANCH   7   8
ATOM      8  C   LIG d   1      -0.345  90.011 117.991  0.00  0.00     0.119 C 
BRANCH   8   9
ATOM      9  C   LIG d   1       0.943  90.715 118.461  0.00  0.00     0.028 C 
ATOM     10  C   LIG d   1       1.399  91.815 117.488  0.00  0.00     0.006 C 
ENDBRANCH   8   9
BRANCH   8  11
ATOM     11  C   LIG d   1       0.118  88.942 116.997  0.00  0.00     0.028 C 
ATOM     12  C   LIG d   1      -0.771  87.688 117.013  0.00  0.00     0.006 C 
ENDBRANCH   8  11
ENDBRANCH   7   8
ENDBRANCH   1   7
BRANCH   6  13
ATOM     13  N   LIG d   1      -1.976  93.089 119.372  0.00  0.00    -0.311 N 
ATOM     14  C   LIG d   1      -0.979  93.971 119.352  0.00  0.00     0.210 C 
ATOM     15  C   LIG d   1      -0.304  94.215 120.705  0.00  0.00     0.109 C 
ATOM     16  O   LIG d   1      -0.611  94.600 118.348  0.00  0.00    -0.276 OA
ATOM     17  H   LIG d   1      -2.230  92.651 120.236  0.00  0.00     0.149 HD
ENDBRANCH   6  13
BRANCH   5  18
ATOM     18  N   LIG d   1      -4.551  94.439 118.432  0.00  0.00     0.381 N 
ATOM     19  H   LIG d   1      -4.486  94.879 117.536  0.00  0.00    -0.090 HD
ATOM     20  H   LIG d   1      -3.867  94.858 119.039  0.00  0.00    -0.090 HD
ATOM     21  H   LIG d   1      -5.464  94.569 118.809  0.00  0.00    -0.090 HD
ENDBRANCH   5  18
BRANCH   3  22
ATOM     22  C   LIG d   1      -5.655  90.394 116.118  0.00  0.00     0.382 C 
ATOM     23  O   LIG d   1      -5.554  89.143 116.095  0.00  0.00    -0.241 OA
ATOM     24  O   LIG d   1      -6.606  90.944 115.532  0.00  0.00    -0.241 OA
ENDBRANCH   3  22
TORSDOF 7
ENDMDL
MODEL 4
REMARK VINA RESULT:      -4.5      2.223      4.468
REMARK  7 active torsions:
REMARK  status: ('A' for Active; 'I' for Inactive)
REMARK    1  A    between atoms: C_2  and  C_3 
REMARK    2  A    between atoms: C_3  and  O_6 
REMARK    3  A    between atoms: C_3  and  C_4 
REMARK    4  A    between atoms: C_7  and  O_6 
REMARK    5  A    between atoms: C_9  and  C_10 
REMARK    6  A    between atoms: N_15  and  C_14 
REMARK    7  A    between atoms: N_20  and  C_19 
REMARK       I    between atoms: C_22  and  N_20 
ROOT
ATOM      1  C   LIG d   1      -3.256  92.564 117.652  0.00  0.00     0.161 C 
ATOM      2  C   LIG d   1      -4.463  92.074 117.126  0.00  0.00     0.016 C 
ATOM      3  C   LIG d   1      -4.678  90.714 116.807  0.00  0.00     0.038 C 
ATOM      4  C   LIG d   1      -3.746  89.719 117.137  0.00  0.00     0.028 C 
ATOM      5  C   LIG d   1      -2.312  90.231 117.206  0.00  0.00    -0.047 C 
ATOM      6  C   LIG d   1      -2.267  91.476 118.121  0.00  0.00     0.091 C 
ENDROOT
BRANCH   1   7
ATOM      7  O   LIG d   1      -3.529  93.489 118.722  0.00  0.00    -0.368 OA
BRANCH   7   8
ATOM      8  C   LIG d   1      -4.866  93.443 119.279  0.00  0.00     0.119 C 
BRANCH   8   9
ATOM      9  C   LIG d   1      -5.368  94.896 119.397  0.00  0.00     0.028 C 
ATOM     10  C   LIG d   1      -6.535  95.194 118.441  0.00  0.00     0.006 C 
ENDBRANCH   8   9
BRANCH   8  11
ATOM     11  C   LIG d   1      -4.856  92.900 120.710  0.00  0.00     0.028 C 
ATOM     12  C   LIG d   1      -6.195  92.264 121.116  0.00  0.00     0.006 C 
ENDBRANCH   8  11
ENDBRANCH   7   8
ENDBRANCH   1   7
BRANCH   6  13
ATOM     13  N   LIG d   1      -0.915  92.091 118.177  0.00  0.00    -0.311 N 
ATOM     14  C   LIG d   1      -0.010  91.789 119.106  0.00  0.00     0.210 C 
ATOM     15  C   LIG d   1       1.313  92.553 118.993  0.00  0.00     0.109 C 
ATOM     16  O   LIG d   1      -0.166  90.938 119.995  0.00  0.00    -0.276 OA
ATOM     17  H   LIG d   1      -0.694  92.770 117.475  0.00  0.00     0.149 HD
ENDBRANCH   6  13
BRANCH   5  18
ATOM     18  N   LIG d   1      -1.466  89.125 117.692  0.00  0.00     0.381 N 
ATOM     19  H   LIG d   1      -0.570  89.163 117.248  0.00  0.00    -0.090 HD
ATOM     20  H   LIG d   1      -1.901  88.252 117.451  0.00  0.00    -0.090 HD
ATOM     21  H   LIG d   1      -1.357  89.188 118.681  0.00  0.00    -0.090 HD
ENDBRANCH   5  18
BRANCH   3  22
ATOM     22  C   LIG d   1      -5.821  90.342 116.115  0.00  0.00     0.382 C 
ATOM     23  O   LIG d   1      -6.442  91.190 115.430  0.00  0.00    -0.241 OA
ATOM     24  O   LIG d   1      -6.264  89.181 116.203  0.00  0.00    -0.241 OA
ENDBRANCH   3  22
TORSDOF 7
ENDMDL
MODEL 5
REMARK VINA RESULT:      -4.4      1.643      4.727
REMARK  7 active torsions:
REMARK  status: ('A' for Active; 'I' for Inactive)
REMARK    1  A    between atoms: C_2  and  C_3 
REMARK    2  A    between atoms: C_3  and  O_6 
REMARK    3  A    between atoms: C_3  and  C_4 
REMARK    4  A    between atoms: C_7  and  O_6 
REMARK    5  A    between atoms: C_9  and  C_10 
REMARK    6  A    between atoms: N_15  and  C_14 
REMARK    7  A    between atoms: N_20  and  C_19 
REMARK       I    between atoms: C_22  and  N_20 
ROOT
ATOM      1  C   LIG d   1      -2.180  93.157 117.658  0.00  0.00     0.161 C 
ATOM      2  C   LIG d   1      -1.980  94.322 118.417  0.00  0.00     0.016 C 
ATOM      3  C   LIG d   1      -2.975  94.894 119.242  0.00  0.00     0.038 C 
ATOM      4  C   LIG d   1      -4.197  94.250 119.485  0.00  0.00     0.028 C 
ATOM      5  C   LIG d   1      -4.635  93.332 118.348  0.00  0.00    -0.047 C 
ATOM      6  C   LIG d   1      -3.470  92.379 117.996  0.00  0.00     0.091 C 
ENDROOT
BRANCH   1   7
ATOM      7  O   LIG d   1      -1.031  92.295 117.774  0.00  0.00    -0.368 OA
BRANCH   7   8
ATOM      8  C   LIG d   1      -0.928  91.531 119.000  0.00  0.00     0.119 C 
BRANCH   8   9
ATOM      9  C   LIG d   1       0.419  91.889 119.657  0.00  0.00     0.028 C 
ATOM     10  C   LIG d   1       1.373  92.605 118.687  0.00  0.00     0.006 C 
ENDBRANCH   8   9
BRANCH   8  11
ATOM     11  C   LIG d   1      -0.853  90.028 118.716  0.00  0.00     0.028 C 
ATOM     12  C   LIG d   1      -0.551  89.715 117.241  0.00  0.00     0.006 C 
ENDBRANCH   8  11
ENDBRANCH   7   8
ENDBRANCH   1   7
BRANCH   6  13
ATOM     13  N   LIG d   1      -3.784  91.504 116.837  0.00  0.00    -0.311 N 
ATOM     14  C   LIG d   1      -4.199  90.244 116.960  0.00  0.00     0.210 C 
ATOM     15  C   LIG d   1      -4.447  89.513 115.638  0.00  0.00     0.109 C 
ATOM     16  O   LIG d   1      -4.416  89.674 118.040  0.00  0.00    -0.276 OA
ATOM     17  H   LIG d   1      -3.665  91.896 115.923  0.00  0.00     0.149 HD
ENDBRANCH   6  13
BRANCH   5  18
ATOM     18  N   LIG d   1      -5.849  92.622 118.790  0.00  0.00     0.381 N 
ATOM     19  H   LIG d   1      -6.588  93.279 118.945  0.00  0.00    -0.090 HD
ATOM     20  H   LIG d   1      -5.655  92.156 119.659  0.00  0.00    -0.090 HD
ATOM     21  H   LIG d   1      -6.125  91.957 118.102  0.00  0.00    -0.090 HD
ENDBRANCH   5  18
BRANCH   3  22
ATOM     22  C   LIG d   1      -2.766  96.144 119.805  0.00  0.00     0.382 C 
ATOM     23  O   LIG d   1      -3.702  96.980 119.840  0.00  0.00    -0.241 OA
ATOM     24  O   LIG d   1      -1.642  96.463 120.237  0.00  0.00    -0.241 OA
ENDBRANCH   3  22
TORSDOF 7
ENDMDL
MODEL 6
REMARK VINA RESULT:      -4.3      2.650      5.565
REMARK  7 active torsions:
REMARK  status: ('A' for Active; 'I' for Inactive)
REMARK    1  A    between atoms: C_2  and  C_3 
REMARK    2  A    between atoms: C_3  and  O_6 
REMARK    3  A    between atoms: C_3  and  C_4 
REMARK    4  A    between atoms: C_7  and  O_6 
REMARK    5  A    between atoms: C_9  and  C_10 
REMARK    6  A    between atoms: N_15  and  C_14 
REMARK    7  A    between atoms: N_20  and  C_19 
REMARK       I    between atoms: C_22  and  N_20 
ROOT
ATOM      1  C   LIG d   1      -5.156  93.180 118.216  0.00  0.00     0.161 C 
ATOM      2  C   LIG d   1      -3.785  93.305 117.933  0.00  0.00     0.016 C 
ATOM      3  C   LIG d   1      -2.836  93.772 118.871  0.00  0.00     0.038 C 
ATOM      4  C   LIG d   1      -3.173  94.004 120.213  0.00  0.00     0.028 C 
ATOM      5  C   LIG d   1      -4.638  94.374 120.415  0.00  0.00    -0.047 C 
ATOM      6  C   LIG d   1      -5.524  93.323 119.708  0.00  0.00     0.091 C 
ENDROOT
BRANCH   1   7
ATOM      7  O   LIG d   1      -5.650  91.930 117.696  0.00  0.00    -0.368 OA
BRANCH   7   8
ATOM      8  C   LIG d   1      -4.867  91.326 116.637  0.00  0.00     0.119 C 
BRANCH   8   9
ATOM      9  C   LIG d   1      -5.802  91.118 115.430  0.00  0.00     0.028 C 
ATOM     10  C   LIG d   1      -6.761  89.932 115.628  0.00  0.00     0.006 C 
ENDBRANCH   8   9
BRANCH   8  11
ATOM     11  C   LIG d   1      -4.391  89.924 117.027  0.00  0.00     0.028 C 
ATOM     12  C   LIG d   1      -2.860  89.788 117.008  0.00  0.00     0.006 C 
ENDBRANCH   8  11
ENDBRANCH   7   8
ENDBRANCH   1   7
BRANCH   6  13
ATOM     13  N   LIG d   1      -6.970  93.656 119.785  0.00  0.00    -0.311 N 
ATOM     14  C   LIG d   1      -7.772  93.220 120.755  0.00  0.00     0.210 C 
ATOM     15  C   LIG d   1      -9.233  93.664 120.634  0.00  0.00     0.109 C 
ATOM     16  O   LIG d   1      -7.406  92.535 121.721  0.00  0.00    -0.276 OA
ATOM     17  H   LIG d   1      -7.344  94.233 119.057  0.00  0.00     0.149 HD
ENDBRANCH   6  13
BRANCH   5  18
ATOM     18  N   LIG d   1      -4.882  94.453 121.868  0.00  0.00     0.381 N 
ATOM     19  H   LIG d   1      -4.444  93.680 122.327  0.00  0.00    -0.090 HD
ATOM     20  H   LIG d   1      -5.872  94.399 122.035  0.00  0.00    -0.090 HD
ATOM     21  H   LIG d   1      -4.523  95.309 122.228  0.00  0.00    -0.090 HD
ENDBRANCH   5  18
BRANCH   3  22
ATOM     22  C   LIG d   1      -1.542  94.049 118.459  0.00  0.00     0.382 C 
ATOM     23  O   LIG d   1      -1.134  93.631 117.349  0.00  0.00    -0.241 OA
ATOM     24  O   LIG d   1      -0.763  94.675 119.203  0.00  0.00    -0.241 OA
ENDBRANCH   3  22
TORSDOF 7
ENDMDL
MODEL 7
REMARK VINA RESULT:      -4.2      2.393      3.356
REMARK  7 active torsions:
REMARK  status: ('A' for Active; 'I' for Inactive)
REMARK    1  A    between atoms: C_2  and  C_3 
REMARK    2  A    between atoms: C_3  and  O_6 
REMARK    3  A    between atoms: C_3  and  C_4 
REMARK    4  A    between atoms: C_7  and  O_6 
REMARK    5  A    between atoms: C_9  and  C_10 
REMARK    6  A    between atoms: N_15  and  C_14 
REMARK    7  A    between atoms: N_20  and  C_19 
REMARK       I    between atoms: C_22  and  N_20 
ROOT
ATOM      1  C   LIG d   1      -2.869  91.528 119.576  0.00  0.00     0.161 C 
ATOM      2  C   LIG d   1      -2.241  90.344 119.156  0.00  0.00     0.016 C 
ATOM      3  C   LIG d   1      -2.848  89.405 118.291  0.00  0.00     0.038 C 
ATOM      4  C   LIG d   1      -4.076  89.662 117.663  0.00  0.00     0.028 C 
ATOM      5  C   LIG d   1      -4.972  90.612 118.450  0.00  0.00    -0.047 C 
ATOM      6  C   LIG d   1      -4.164  91.879 118.813  0.00  0.00     0.091 C 
ENDROOT
BRANCH   1   7
ATOM      7  O   LIG d   1      -1.937  92.625 119.511  0.00  0.00    -0.368 OA
BRANCH   7   8
ATOM      8  C   LIG d   1      -1.389  92.920 118.203  0.00  0.00     0.119 C 
BRANCH   8   9
ATOM      9  C   LIG d   1       0.139  92.741 118.289  0.00  0.00     0.028 C 
ATOM     10  C   LIG d   1       0.664  91.687 117.300  0.00  0.00     0.006 C 
ENDBRANCH   8   9
BRANCH   8  11
ATOM     11  C   LIG d   1      -1.605  94.389 117.827  0.00  0.00     0.028 C 
ATOM     12  C   LIG d   1      -2.147  95.230 118.994  0.00  0.00     0.006 C 
ENDBRANCH   8  11
ENDBRANCH   7   8
ENDBRANCH   1   7
BRANCH   6  13
ATOM     13  N   LIG d   1      -4.940  92.824 119.656  0.00  0.00    -0.311 N 
ATOM     14  C   LIG d   1      -5.723  93.779 119.156  0.00  0.00     0.210 C 
ATOM     15  C   LIG d   1      -6.419  94.658 120.201  0.00  0.00     0.109 C 
ATOM     16  O   LIG d   1      -5.933  93.961 117.948  0.00  0.00    -0.276 OA
ATOM     17  H   LIG d   1      -4.853  92.728 120.649  0.00  0.00     0.149 HD
ENDBRANCH   6  13
BRANCH   5  18
ATOM     18  N   LIG d   1      -6.156  90.900 117.618  0.00  0.00     0.381 N 
ATOM     19  H   LIG d   1      -5.871  91.082 116.676  0.00  0.00    -0.090 HD
ATOM     20  H   LIG d   1      -6.611  91.723 117.974  0.00  0.00    -0.090 HD
ATOM     21  H   LIG d   1      -6.784  90.128 117.640  0.00  0.00    -0.090 HD
ENDBRANCH   5  18
BRANCH   3  22
ATOM     22  C   LIG d   1      -2.244  88.175 118.078  0.00  0.00     0.382 C 
ATOM     23  O   LIG d   1      -2.485  87.216 118.851  0.00  0.00    -0.241 OA
ATOM     24  O   LIG d   1      -1.428  88.024 117.149  0.00  0.00    -0.241 OA
ENDBRANCH   3  22
TORSDOF 7
ENDMDL
MODEL 8
REMARK VINA RESULT:      -4.1      3.243      6.225
REMARK  7 active torsions:
REMARK  status: ('A' for Active; 'I' for Inactive)
REMARK    1  A    between atoms: C_2  and  C_3 
REMARK    2  A    between atoms: C_3  and  O_6 
REMARK    3  A    between atoms: C_3  and  C_4 
REMARK    4  A    between atoms: C_7  and  O_6 
REMARK    5  A    between atoms: C_9  and  C_10 
REMARK    6  A    between atoms: N_15  and  C_14 
REMARK    7  A    between atoms: N_20  and  C_19 
REMARK       I    between atoms: C_22  and  N_20 
ROOT
ATOM      1  C   LIG d   1       0.952  89.332 116.826  0.00  0.00     0.161 C 
ATOM      2  C   LIG d   1       2.253  89.809 117.055  0.00  0.00     0.016 C 
ATOM      3  C   LIG d   1       2.541  91.151 117.396  0.00  0.00     0.038 C 
ATOM      4  C   LIG d   1       1.528  92.077 117.681  0.00  0.00     0.028 C 
ATOM      5  C   LIG d   1       0.212  91.774 116.972  0.00  0.00    -0.047 C 
ATOM      6  C   LIG d   1      -0.175  90.301 117.241  0.00  0.00     0.091 C 
ENDROOT
BRANCH   1   7
ATOM      7  O   LIG d   1       0.778  88.056 117.473  0.00  0.00    -0.368 OA
BRANCH   7   8
ATOM      8  C   LIG d   1       0.104  88.078 118.755  0.00  0.00     0.119 C 
BRANCH   8   9
ATOM      9  C   LIG d   1       1.184  87.960 119.848  0.00  0.00     0.028 C 
ATOM     10  C   LIG d   1       1.265  89.217 120.731  0.00  0.00     0.006 C 
ENDBRANCH   8   9
BRANCH   8  11
ATOM     11  C   LIG d   1      -0.791  86.848 118.935  0.00  0.00     0.028 C 
ATOM     12  C   LIG d   1      -2.156  87.189 119.553  0.00  0.00     0.006 C 
ENDBRANCH   8  11
ENDBRANCH   7   8
ENDBRANCH   1   7
BRANCH   6  13
ATOM     13  N   LIG d   1      -1.407  89.897 116.515  0.00  0.00    -0.311 N 
ATOM     14  C   LIG d   1      -2.622  89.929 117.059  0.00  0.00     0.210 C 
ATOM     15  C   LIG d   1      -3.753  89.451 116.142  0.00  0.00     0.109 C 
ATOM     16  O   LIG d   1      -2.875  90.337 118.202  0.00  0.00    -0.276 OA
ATOM     17  H   LIG d   1      -1.297  89.582 115.571  0.00  0.00     0.149 HD
ENDBRANCH   6  13
BRANCH   5  18
ATOM     18  N   LIG d   1      -0.792  92.735 117.466  0.00  0.00     0.381 N 
ATOM     19  H   LIG d   1      -0.975  92.566 118.435  0.00  0.00    -0.090 HD
ATOM     20  H   LIG d   1      -1.648  92.602 116.955  0.00  0.00    -0.090 HD
ATOM     21  H   LIG d   1      -0.463  93.667 117.340  0.00  0.00    -0.090 HD
ENDBRANCH   5  18
BRANCH   3  22
ATOM     22  C   LIG d   1       3.857  91.587 117.415  0.00  0.00     0.382 C 
ATOM     23  O   LIG d   1       4.775  90.796 117.741  0.00  0.00    -0.241 OA
ATOM     24  O   LIG d   1       4.133  92.773 117.154  0.00  0.00    -0.241 OA
ENDBRANCH   3  22
TORSDOF 7
ENDMDL
MODEL 9
REMARK VINA RESULT:      -4.1      2.221      4.104
REMARK  7 active torsions:
REMARK  status: ('A' for Active; 'I' for Inactive)
REMARK    1  A    between atoms: C_2  and  C_3 
REMARK    2  A    between atoms: C_3  and  O_6 
REMARK    3  A    between atoms: C_3  and  C_4 
REMARK    4  A    between atoms: C_7  and  O_6 
REMARK    5  A    between atoms: C_9  and  C_10 
REMARK    6  A    between atoms: N_15  and  C_14 
REMARK    7  A    between atoms: N_20  and  C_19 
REMARK       I    between atoms: C_22  and  N_20 
ROOT
ATOM      1  C   LIG d   1      -3.003  92.548 118.007  0.00  0.00     0.161 C 
ATOM      2  C   LIG d   1      -4.217  92.509 117.302  0.00  0.00     0.016 C 
ATOM      3  C   LIG d   1      -4.714  91.346 116.672  0.00  0.00     0.038 C 
ATOM      4  C   LIG d   1      -4.100  90.095 116.833  0.00  0.00     0.028 C 
ATOM      5  C   LIG d   1      -2.604  90.187 117.115  0.00  0.00    -0.047 C 
ATOM      6  C   LIG d   1      -2.374  91.167 118.288  0.00  0.00     0.091 C 
ENDROOT
BRANCH   1   7
ATOM      7  O   LIG d   1      -3.175  93.280 119.237  0.00  0.00    -0.368 OA
BRANCH   7   8
ATOM      8  C   LIG d   1      -2.675  94.639 119.245  0.00  0.00     0.119 C 
BRANCH   8   9
ATOM      9  C   LIG d   1      -1.421  94.666 120.141  0.00  0.00     0.028 C 
ATOM     10  C   LIG d   1      -1.650  93.965 121.491  0.00  0.00     0.006 C 
ENDBRANCH   8   9
BRANCH   8  11
ATOM     11  C   LIG d   1      -3.669  95.595 119.911  0.00  0.00     0.028 C 
ATOM     12  C   LIG d   1      -5.133  95.187 119.681  0.00  0.00     0.006 C 
ENDBRANCH   8  11
ENDBRANCH   7   8
ENDBRANCH   1   7
BRANCH   6  13
ATOM     13  N   LIG d   1      -0.931  91.380 118.574  0.00  0.00    -0.311 N 
ATOM     14  C   LIG d   1      -0.349  91.015 119.715  0.00  0.00     0.210 C 
ATOM     15  C   LIG d   1       1.144  91.345 119.813  0.00  0.00     0.109 C 
ATOM     16  O   LIG d   1      -0.919  90.420 120.642  0.00  0.00    -0.276 OA
ATOM     17  H   LIG d   1      -0.387  91.828 117.864  0.00  0.00     0.149 HD
ENDBRANCH   6  13
BRANCH   5  18
ATOM     18  N   LIG d   1      -2.119  88.823 117.398  0.00  0.00     0.381 N 
ATOM     19  H   LIG d   1      -2.017  88.315 116.542  0.00  0.00    -0.090 HD
ATOM     20  H   LIG d   1      -2.798  88.348 117.967  0.00  0.00    -0.090 HD
ATOM     21  H   LIG d   1      -1.246  88.864 117.875  0.00  0.00    -0.090 HD
ENDBRANCH   5  18
BRANCH   3  22
ATOM     22  C   LIG d   1      -5.817  91.434 115.836  0.00  0.00     0.382 C 
ATOM     23  O   LIG d   1      -6.208  92.556 115.430  0.00  0.00    -0.241 OA
ATOM     24  O   LIG d   1      -6.454  90.412 115.519  0.00  0.00    -0.241 OA
ENDBRANCH   3  22
TORSDOF 7
ENDMDL
