MODEL 1
REMARK VINA RESULT:      -4.8      0.000      0.000
REMARK  7 active torsions:
REMARK  status: ('A' for Active; 'I' for Inactive)
REMARK    1  A    between atoms: C_2  and  C_3 
REMARK    2  A    between atoms: C_3  and  O_6 
REMARK    3  A    between atoms: C_3  and  C_4 
REMARK    4  A    between atoms: C_7  and  O_6 
REMARK    5  A    between atoms: C_9  and  C_10 
REMARK    6  A    between atoms: N_15  and  C_14 
REMARK    7  A    between atoms: N_20  and  C_19 
REMARK       I    between atoms: C_22  and  N_20 
ROOT
ATOM      1  C   LIG d   1      -6.050  92.804 119.652  0.00  0.00     0.161 C 
ATOM      2  C   LIG d   1      -5.284  93.497 120.605  0.00  0.00     0.016 C 
ATOM      3  C   LIG d   1      -3.944  93.892 120.389  0.00  0.00     0.038 C 
ATOM      4  C   LIG d   1      -3.322  93.753 119.139  0.00  0.00     0.028 C 
ATOM      5  C   LIG d   1      -3.886  92.606 118.307  0.00  0.00    -0.047 C 
ATOM      6  C   LIG d   1      -5.425  92.742 118.242  0.00  0.00     0.091 C 
ENDROOT
BRANCH   1   7
ATOM      7  O   LIG d   1      -7.375  93.366 119.588  0.00  0.00    -0.368 OA
BRANCH   7   8
ATOM      8  C   LIG d   1      -7.509  94.736 120.038  0.00  0.00     0.119 C 
BRANCH   8   9
ATOM      9  C   LIG d   1      -8.710  94.792 121.002  0.00  0.00     0.028 C 
ATOM     10  C   LIG d   1      -9.045  93.416 121.602  0.00  0.00     0.006 C 
ENDBRANCH   8   9
BRANCH   8  11
ATOM     11  C   LIG d   1      -7.875  95.670 118.880  0.00  0.00     0.028 C 
ATOM     12  C   LIG d   1      -9.373  96.014 118.843  0.00  0.00     0.006 C 
ENDBRANCH   8  11
ENDBRANCH   7   8
ENDBRANCH   1   7
BRANCH   6  13
ATOM     13  N   LIG d   1      -6.063  91.613 117.517  0.00  0.00    -0.311 N 
ATOM     14  C   LIG d   1      -6.279  91.615 116.202  0.00  0.00     0.210 C 
ATOM     15  C   LIG d   1      -6.968  90.360 115.658  0.00  0.00     0.109 C 
ATOM     16  O   LIG d   1      -5.935  92.523 115.430  0.00  0.00    -0.276 OA
ATOM     17  H   LIG d   1      -6.345  90.822 118.061  0.00  0.00     0.149 HD
ENDBRANCH   6  13
BRANCH   5  18
ATOM     18  N   LIG d   1      -3.245  92.663 116.979  0.00  0.00     0.381 N 
ATOM     19  H   LIG d   1      -3.914  92.945 116.291  0.00  0.00    -0.090 HD
ATOM     20  H   LIG d   1      -2.914  91.745 116.739  0.00  0.00    -0.090 HD
ATOM     21  H   LIG d   1      -2.483  93.305 116.995  0.00  0.00    -0.090 HD
ENDBRANCH   5  18
BRANCH   3  22
ATOM     22  C   LIG d   1      -3.198  94.397 121.443  0.00  0.00     0.382 C 
ATOM     23  O   LIG d   1      -2.469  95.403 121.270  0.00  0.00    -0.241 OA
ATOM     24  O   LIG d   1      -3.212  93.833 122.554  0.00  0.00    -0.241 OA
ENDBRANCH   3  22
TORSDOF 7
ENDMDL
MODEL 2
REMARK VINA RESULT:      -4.7      4.314      6.579
REMARK  7 active torsions:
REMARK  status: ('A' for Active; 'I' for Inactive)
REMARK    1  A    between atoms: C_2  and  C_3 
REMARK    2  A    between atoms: C_3  and  O_6 
REMARK    3  A    between atoms: C_3  and  C_4 
REMARK    4  A    between atoms: C_7  and  O_6 
REMARK    5  A    between atoms: C_9  and  C_10 
REMARK    6  A    between atoms: N_15  and  C_14 
REMARK    7  A    between atoms: N_20  and  C_19 
REMARK       I    between atoms: C_22  and  N_20 
ROOT
ATOM      1  C   LIG d   1      -1.287  91.805 117.754  0.00  0.00     0.161 C 
ATOM      2  C   LIG d   1       0.006  91.519 117.285  0.00  0.00     0.016 C 
ATOM      3  C   LIG d   1       1.047  92.474 117.242  0.00  0.00     0.038 C 
ATOM      4  C   LIG d   1       0.908  93.749 117.811  0.00  0.00     0.028 C 
ATOM      5  C   LIG d   1      -0.533  94.245 117.839  0.00  0.00    -0.047 C 
ATOM      6  C   LIG d   1      -1.426  93.159 118.482  0.00  0.00     0.091 C 
ENDROOT
BRANCH   1   7
ATOM      7  O   LIG d   1      -1.749  90.733 118.599  0.00  0.00    -0.368 OA
BRANCH   7   8
ATOM      8  C   LIG d   1      -2.818  89.914 118.063  0.00  0.00     0.119 C 
BRANCH   8   9
ATOM      9  C   LIG d   1      -2.213  88.546 117.694  0.00  0.00     0.028 C 
ATOM     10  C   LIG d   1      -1.902  87.688 118.933  0.00  0.00     0.006 C 
ENDBRANCH   8   9
BRANCH   8  11
ATOM     11  C   LIG d   1      -3.353  90.488 116.748  0.00  0.00     0.028 C 
ATOM     12  C   LIG d   1      -4.797  91.002 116.866  0.00  0.00     0.006 C 
ENDBRANCH   8  11
ENDBRANCH   7   8
ENDBRANCH   1   7
BRANCH   6  13
ATOM     13  N   LIG d   1      -2.865  93.529 118.472  0.00  0.00    -0.311 N 
ATOM     14  C   LIG d   1      -3.476  94.123 119.495  0.00  0.00     0.210 C 
ATOM     15  C   LIG d   1      -4.968  94.400 119.286  0.00  0.00     0.109 C 
ATOM     16  O   LIG d   1      -2.917  94.477 120.544  0.00  0.00    -0.276 OA
ATOM     17  H   LIG d   1      -3.388  93.306 117.648  0.00  0.00     0.149 HD
ENDBRANCH   6  13
BRANCH   5  18
ATOM     18  N   LIG d   1      -0.551  95.520 118.581  0.00  0.00     0.381 N 
ATOM     19  H   LIG d   1      -1.009  96.223 118.035  0.00  0.00    -0.090 HD
ATOM     20  H   LIG d   1       0.396  95.815 118.744  0.00  0.00    -0.090 HD
ATOM     21  H   LIG d   1      -1.025  95.403 119.449  0.00  0.00    -0.090 HD
ENDBRANCH   5  18
BRANCH   3  22
ATOM     22  C   LIG d   1       2.232  92.170 116.589  0.00  0.00     0.382 C 
ATOM     23  O   LIG d   1       2.328  91.109 115.926  0.00  0.00    -0.241 OA
ATOM     24  O   LIG d   1       3.221  92.921 116.692  0.00  0.00    -0.241 OA
ENDBRANCH   3  22
TORSDOF 7
ENDMDL
MODEL 3
REMARK VINA RESULT:      -4.6      4.037      6.186
REMARK  7 active torsions:
REMARK  status: ('A' for Active; 'I' for Inactive)
REMARK    1  A    between atoms: C_2  and  C_3 
REMARK    2  A    between atoms: C_3  and  O_6 
REMARK    3  A    between atoms: C_3  and  C_4 
REMARK    4  A    between atoms: C_7  and  O_6 
REMARK    5  A    between atoms: C_9  and  C_10 
REMARK    6  A    between atoms: N_15  and  C_14 
REMARK    7  A    between atoms: N_20  and  C_19 
REMARK       I    between atoms: C_22  and  N_20 
ROOT
ATOM      1  C   LIG d   1      -1.371  91.726 117.403  0.00  0.00     0.161 C 
ATOM      2  C   LIG d   1       0.022  91.818 117.562  0.00  0.00     0.016 C 
ATOM      3  C   LIG d   1       0.705  93.043 117.742  0.00  0.00     0.038 C 
ATOM      4  C   LIG d   1       0.021  94.253 117.928  0.00  0.00     0.028 C 
ATOM      5  C   LIG d   1      -1.356  94.278 117.272  0.00  0.00    -0.047 C 
ATOM      6  C   LIG d   1      -2.145  93.024 117.715  0.00  0.00     0.091 C 
ENDROOT
BRANCH   1   7
ATOM      7  O   LIG d   1      -1.882  90.636 118.196  0.00  0.00    -0.368 OA
BRANCH   7   8
ATOM      8  C   LIG d   1      -1.117  90.295 119.378  0.00  0.00     0.119 C 
BRANCH   8   9
ATOM      9  C   LIG d   1      -1.111  88.758 119.497  0.00  0.00     0.028 C 
ATOM     10  C   LIG d   1      -1.891  88.078 118.360  0.00  0.00     0.006 C 
ENDBRANCH   8   9
BRANCH   8  11
ATOM     11  C   LIG d   1      -1.805  90.797 120.651  0.00  0.00     0.028 C 
ATOM     12  C   LIG d   1      -1.214  92.119 121.165  0.00  0.00     0.006 C 
ENDBRANCH   8  11
ENDBRANCH   7   8
ENDBRANCH   1   7
BRANCH   6  13
ATOM     13  N   LIG d   1      -3.472  92.927 117.053  0.00  0.00    -0.311 N 
ATOM     14  C   LIG d   1      -4.592  92.608 117.699  0.00  0.00     0.210 C 
ATOM     15  C   LIG d   1      -5.847  92.544 116.824  0.00  0.00     0.109 C 
ATOM     16  O   LIG d   1      -4.670  92.403 118.920  0.00  0.00    -0.276 OA
ATOM     17  H   LIG d   1      -3.505  93.108 116.068  0.00  0.00     0.149 HD
ENDBRANCH   6  13
BRANCH   5  18
ATOM     18  N   LIG d   1      -2.011  95.541 117.660  0.00  0.00     0.381 N 
ATOM     19  H   LIG d   1      -2.928  95.583 117.261  0.00  0.00    -0.090 HD
ATOM     20  H   LIG d   1      -1.475  96.310 117.300  0.00  0.00    -0.090 HD
ATOM     21  H   LIG d   1      -2.070  95.604 118.653  0.00  0.00    -0.090 HD
ENDBRANCH   5  18
BRANCH   3  22
ATOM     22  C   LIG d   1       2.091  93.069 117.697  0.00  0.00     0.382 C 
ATOM     23  O   LIG d   1       2.689  92.796 116.628  0.00  0.00    -0.241 OA
ATOM     24  O   LIG d   1       2.751  93.320 118.723  0.00  0.00    -0.241 OA
ENDBRANCH   3  22
TORSDOF 7
ENDMDL
MODEL 4
REMARK VINA RESULT:      -4.6      3.743      7.465
REMARK  7 active torsions:
REMARK  status: ('A' for Active; 'I' for Inactive)
REMARK    1  A    between atoms: C_2  and  C_3 
REMARK    2  A    between atoms: C_3  and  O_6 
REMARK    3  A    between atoms: C_3  and  C_4 
REMARK    4  A    between atoms: C_7  and  O_6 
REMARK    5  A    between atoms: C_9  and  C_10 
REMARK    6  A    between atoms: N_15  and  C_14 
REMARK    7  A    between atoms: N_20  and  C_19 
REMARK       I    between atoms: C_22  and  N_20 
ROOT
ATOM      1  C   LIG d   1      -2.788  90.615 117.565  0.00  0.00     0.161 C 
ATOM      2  C   LIG d   1      -3.875  90.329 116.722  0.00  0.00     0.016 C 
ATOM      3  C   LIG d   1      -4.919  91.245 116.461  0.00  0.00     0.038 C 
ATOM      4  C   LIG d   1      -4.870  92.574 116.909  0.00  0.00     0.028 C 
ATOM      5  C   LIG d   1      -4.044  92.754 118.178  0.00  0.00    -0.047 C 
ATOM      6  C   LIG d   1      -2.660  92.098 117.974  0.00  0.00     0.091 C 
ENDROOT
BRANCH   1   7
ATOM      7  O   LIG d   1      -1.564  90.155 116.958  0.00  0.00    -0.368 OA
BRANCH   7   8
ATOM      8  C   LIG d   1      -1.183  88.788 117.248  0.00  0.00     0.119 C 
BRANCH   8   9
ATOM      9  C   LIG d   1      -1.286  88.592 118.773  0.00  0.00     0.028 C 
ATOM     10  C   LIG d   1      -1.729  87.169 119.153  0.00  0.00     0.006 C 
ENDBRANCH   8   9
BRANCH   8  11
ATOM     11  C   LIG d   1       0.287  88.534 116.905  0.00  0.00     0.028 C 
ATOM     12  C   LIG d   1       0.479  87.357 115.936  0.00  0.00     0.006 C 
ENDBRANCH   8  11
ENDBRANCH   7   8
ENDBRANCH   1   7
BRANCH   6  13
ATOM     13  N   LIG d   1      -1.819  92.156 119.198  0.00  0.00    -0.311 N 
ATOM     14  C   LIG d   1      -0.633  92.760 119.244  0.00  0.00     0.210 C 
ATOM     15  C   LIG d   1       0.078  92.686 120.599  0.00  0.00     0.109 C 
ATOM     16  O   LIG d   1      -0.117  93.380 118.302  0.00  0.00    -0.276 OA
ATOM     17  H   LIG d   1      -2.175  91.706 120.018  0.00  0.00     0.149 HD
ENDBRANCH   6  13
BRANCH   5  18
ATOM     18  N   LIG d   1      -3.963  94.201 118.454  0.00  0.00     0.381 N 
ATOM     19  H   LIG d   1      -3.938  94.710 117.593  0.00  0.00    -0.090 HD
ATOM     20  H   LIG d   1      -3.113  94.389 118.956  0.00  0.00    -0.090 HD
ATOM     21  H   LIG d   1      -4.747  94.489 118.996  0.00  0.00    -0.090 HD
ENDBRANCH   5  18
BRANCH   3  22
ATOM     22  C   LIG d   1      -6.049  90.822 115.777  0.00  0.00     0.382 C 
ATOM     23  O   LIG d   1      -6.159  89.622 115.430  0.00  0.00    -0.241 OA
ATOM     24  O   LIG d   1      -6.939  91.636 115.463  0.00  0.00    -0.241 OA
ENDBRANCH   3  22
TORSDOF 7
ENDMDL
MODEL 5
REMARK VINA RESULT:      -4.6      4.562      6.980
REMARK  7 active torsions:
REMARK  status: ('A' for Active; 'I' for Inactive)
REMARK    1  A    between atoms: C_2  and  C_3 
REMARK    2  A    between atoms: C_3  and  O_6 
REMARK    3  A    between atoms: C_3  and  C_4 
REMARK    4  A    between atoms: C_7  and  O_6 
REMARK    5  A    between atoms: C_9  and  C_10 
REMARK    6  A    between atoms: N_15  and  C_14 
REMARK    7  A    between atoms: N_20  and  C_19 
REMARK       I    between atoms: C_22  and  N_20 
ROOT
ATOM      1  C   LIG d   1      -1.066  91.440 117.442  0.00  0.00     0.161 C 
ATOM      2  C   LIG d   1       0.314  91.656 117.598  0.00  0.00     0.016 C 
ATOM      3  C   LIG d   1       0.888  92.938 117.752  0.00  0.00     0.038 C 
ATOM      4  C   LIG d   1       0.102  94.088 117.914  0.00  0.00     0.028 C 
ATOM      5  C   LIG d   1      -1.271  93.981 117.259  0.00  0.00    -0.047 C 
ATOM      6  C   LIG d   1      -1.949  92.673 117.727  0.00  0.00     0.091 C 
ENDROOT
BRANCH   1   7
ATOM      7  O   LIG d   1      -1.481  90.326 118.257  0.00  0.00    -0.368 OA
BRANCH   7   8
ATOM      8  C   LIG d   1      -0.564  89.207 118.322  0.00  0.00     0.119 C 
BRANCH   8   9
ATOM      9  C   LIG d   1      -0.938  88.235 117.186  0.00  0.00     0.028 C 
ATOM     10  C   LIG d   1       0.240  87.960 116.237  0.00  0.00     0.006 C 
ENDBRANCH   8   9
BRANCH   8  11
ATOM     11  C   LIG d   1      -0.749  88.409 119.616  0.00  0.00     0.028 C 
ATOM     12  C   LIG d   1      -1.612  87.152 119.423  0.00  0.00     0.006 C 
ENDBRANCH   8  11
ENDBRANCH   7   8
ENDBRANCH   1   7
BRANCH   6  13
ATOM     13  N   LIG d   1      -3.262  92.447 117.068  0.00  0.00    -0.311 N 
ATOM     14  C   LIG d   1      -4.425  92.808 117.607  0.00  0.00     0.210 C 
ATOM     15  C   LIG d   1      -5.660  92.465 116.770  0.00  0.00     0.109 C 
ATOM     16  O   LIG d   1      -4.548  93.408 118.686  0.00  0.00    -0.276 OA
ATOM     17  H   LIG d   1      -3.252  91.994 116.175  0.00  0.00     0.149 HD
ENDBRANCH   6  13
BRANCH   5  18
ATOM     18  N   LIG d   1      -2.034  95.190 117.622  0.00  0.00     0.381 N 
ATOM     19  H   LIG d   1      -2.929  95.172 117.175  0.00  0.00    -0.090 HD
ATOM     20  H   LIG d   1      -1.535  95.999 117.296  0.00  0.00    -0.090 HD
ATOM     21  H   LIG d   1      -2.149  95.237 118.610  0.00  0.00    -0.090 HD
ENDBRANCH   5  18
BRANCH   3  22
ATOM     22  C   LIG d   1       2.267  93.084 117.707  0.00  0.00     0.382 C 
ATOM     23  O   LIG d   1       2.888  92.837 116.645  0.00  0.00    -0.241 OA
ATOM     24  O   LIG d   1       2.901  93.417 118.726  0.00  0.00    -0.241 OA
ENDBRANCH   3  22
TORSDOF 7
ENDMDL
MODEL 6
REMARK VINA RESULT:      -4.6      2.893      6.451
REMARK  7 active torsions:
REMARK  status: ('A' for Active; 'I' for Inactive)
REMARK    1  A    between atoms: C_2  and  C_3 
REMARK    2  A    between atoms: C_3  and  O_6 
REMARK    3  A    between atoms: C_3  and  C_4 
REMARK    4  A    between atoms: C_7  and  O_6 
REMARK    5  A    between atoms: C_9  and  C_10 
REMARK    6  A    between atoms: N_15  and  C_14 
REMARK    7  A    between atoms: N_20  and  C_19 
REMARK       I    between atoms: C_22  and  N_20 
ROOT
ATOM      1  C   LIG d   1      -3.613  92.081 118.771  0.00  0.00     0.161 C 
ATOM      2  C   LIG d   1      -3.930  91.191 117.732  0.00  0.00     0.016 C 
ATOM      3  C   LIG d   1      -5.024  91.375 116.855  0.00  0.00     0.038 C 
ATOM      4  C   LIG d   1      -5.791  92.549 116.864  0.00  0.00     0.028 C 
ATOM      5  C   LIG d   1      -5.822  93.243 118.222  0.00  0.00    -0.047 C 
ATOM      6  C   LIG d   1      -4.372  93.424 118.725  0.00  0.00     0.091 C 
ENDROOT
BRANCH   1   7
ATOM      7  O   LIG d   1      -2.191  92.311 118.801  0.00  0.00    -0.368 OA
BRANCH   7   8
ATOM      8  C   LIG d   1      -1.568  92.622 117.531  0.00  0.00     0.119 C 
BRANCH   8   9
ATOM      9  C   LIG d   1      -0.170  91.972 117.529  0.00  0.00     0.028 C 
ATOM     10  C   LIG d   1      -0.170  90.582 116.872  0.00  0.00     0.006 C 
ENDBRANCH   8   9
BRANCH   8  11
ATOM     11  C   LIG d   1      -1.316  94.126 117.387  0.00  0.00     0.028 C 
ATOM     12  C   LIG d   1      -0.704  94.751 118.651  0.00  0.00     0.006 C 
ENDBRANCH   8  11
ENDBRANCH   7   8
ENDBRANCH   1   7
BRANCH   6  13
ATOM     13  N   LIG d   1      -4.315  94.020 120.086  0.00  0.00    -0.311 N 
ATOM     14  C   LIG d   1      -4.129  95.319 120.310  0.00  0.00     0.210 C 
ATOM     15  C   LIG d   1      -4.082  95.720 121.788  0.00  0.00     0.109 C 
ATOM     16  O   LIG d   1      -4.031  96.183 119.425  0.00  0.00    -0.276 OA
ATOM     17  H   LIG d   1      -4.417  93.395 120.862  0.00  0.00     0.149 HD
ENDBRANCH   6  13
BRANCH   5  18
ATOM     18  N   LIG d   1      -6.540  94.521 118.053  0.00  0.00     0.381 N 
ATOM     19  H   LIG d   1      -5.884  95.276 118.024  0.00  0.00    -0.090 HD
ATOM     20  H   LIG d   1      -7.146  94.660 118.843  0.00  0.00    -0.090 HD
ATOM     21  H   LIG d   1      -7.075  94.503 117.213  0.00  0.00    -0.090 HD
ENDBRANCH   5  18
BRANCH   3  22
ATOM     22  C   LIG d   1      -5.385  90.359 115.983  0.00  0.00     0.382 C 
ATOM     23  O   LIG d   1      -6.597  90.107 115.782  0.00  0.00    -0.241 OA
ATOM     24  O   LIG d   1      -4.513  89.662 115.430  0.00  0.00    -0.241 OA
ENDBRANCH   3  22
TORSDOF 7
ENDMDL
MODEL 7
REMARK VINA RESULT:      -4.5      3.980      7.244
REMARK  7 active torsions:
REMARK  status: ('A' for Active; 'I' for Inactive)
REMARK    1  A    between atoms: C_2  and  C_3 
REMARK    2  A    between atoms: C_3  and  O_6 
REMARK    3  A    between atoms: C_3  and  C_4 
REMARK    4  A    between atoms: C_7  and  O_6 
REMARK    5  A    between atoms: C_9  and  C_10 
REMARK    6  A    between atoms: N_15  and  C_14 
REMARK    7  A    between atoms: N_20  and  C_19 
REMARK       I    between atoms: C_22  and  N_20 
ROOT
ATOM      1  C   LIG d   1      -1.908  91.340 119.019  0.00  0.00     0.161 C 
ATOM      2  C   LIG d   1      -3.252  91.092 118.690  0.00  0.00     0.016 C 
ATOM      3  C   LIG d   1      -4.003  91.910 117.815  0.00  0.00     0.038 C 
ATOM      4  C   LIG d   1      -3.413  92.953 117.086  0.00  0.00     0.028 C 
ATOM      5  C   LIG d   1      -2.187  93.551 117.769  0.00  0.00    -0.047 C 
ATOM      6  C   LIG d   1      -1.217  92.409 118.148  0.00  0.00     0.091 C 
ENDROOT
BRANCH   1   7
ATOM      7  O   LIG d   1      -1.162  90.108 118.987  0.00  0.00    -0.368 OA
BRANCH   7   8
ATOM      8  C   LIG d   1      -0.854  89.583 117.673  0.00  0.00     0.119 C 
BRANCH   8   9
ATOM      9  C   LIG d   1      -1.440  88.160 117.593  0.00  0.00     0.028 C 
ATOM     10  C   LIG d   1      -1.831  87.608 118.975  0.00  0.00     0.006 C 
ENDBRANCH   8   9
BRANCH   8  11
ATOM     11  C   LIG d   1       0.656  89.410 117.481  0.00  0.00     0.028 C 
ATOM     12  C   LIG d   1       1.441  89.524 118.797  0.00  0.00     0.006 C 
ENDBRANCH   8  11
ENDBRANCH   7   8
ENDBRANCH   1   7
BRANCH   6  13
ATOM     13  N   LIG d   1      -0.029  92.899 118.895  0.00  0.00    -0.311 N 
ATOM     14  C   LIG d   1       1.131  93.198 118.313  0.00  0.00     0.210 C 
ATOM     15  C   LIG d   1       2.232  93.667 119.270  0.00  0.00     0.109 C 
ATOM     16  O   LIG d   1       1.343  93.151 117.092  0.00  0.00    -0.276 OA
ATOM     17  H   LIG d   1      -0.123  92.997 119.887  0.00  0.00     0.149 HD
ENDBRANCH   6  13
BRANCH   5  18
ATOM     18  N   LIG d   1      -1.593  94.530 116.839  0.00  0.00     0.381 N 
ATOM     19  H   LIG d   1      -1.676  95.452 117.219  0.00  0.00    -0.090 HD
ATOM     20  H   LIG d   1      -2.097  94.501 115.970  0.00  0.00    -0.090 HD
ATOM     21  H   LIG d   1      -0.633  94.313 116.682  0.00  0.00    -0.090 HD
ENDBRANCH   5  18
BRANCH   3  22
ATOM     22  C   LIG d   1      -5.369  91.711 117.693  0.00  0.00     0.382 C 
ATOM     23  O   LIG d   1      -5.806  90.776 116.980  0.00  0.00    -0.241 OA
ATOM     24  O   LIG d   1      -6.172  92.483 118.251  0.00  0.00    -0.241 OA
ENDBRANCH   3  22
TORSDOF 7
ENDMDL
MODEL 8
REMARK VINA RESULT:      -4.5      4.406      6.789
REMARK  7 active torsions:
REMARK  status: ('A' for Active; 'I' for Inactive)
REMARK    1  A    between atoms: C_2  and  C_3 
REMARK    2  A    between atoms: C_3  and  O_6 
REMARK    3  A    between atoms: C_3  and  C_4 
REMARK    4  A    between atoms: C_7  and  O_6 
REMARK    5  A    between atoms: C_9  and  C_10 
REMARK    6  A    between atoms: N_15  and  C_14 
REMARK    7  A    between atoms: N_20  and  C_19 
REMARK       I    between atoms: C_22  and  N_20 
ROOT
ATOM      1  C   LIG d   1      -1.051  92.265 117.674  0.00  0.00     0.161 C 
ATOM      2  C   LIG d   1       0.203  91.931 117.136  0.00  0.00     0.016 C 
ATOM      3  C   LIG d   1       1.391  92.638 117.433  0.00  0.00     0.038 C 
ATOM      4  C   LIG d   1       1.431  93.641 118.413  0.00  0.00     0.028 C 
ATOM      5  C   LIG d   1       0.094  94.348 118.611  0.00  0.00    -0.047 C 
ATOM      6  C   LIG d   1      -1.007  93.286 118.830  0.00  0.00     0.091 C 
ENDROOT
BRANCH   1   7
ATOM      7  O   LIG d   1      -1.740  91.069 118.088  0.00  0.00    -0.368 OA
BRANCH   7   8
ATOM      8  C   LIG d   1      -2.669  90.505 117.130  0.00  0.00     0.119 C 
BRANCH   8   9
ATOM      9  C   LIG d   1      -4.091  90.888 117.585  0.00  0.00     0.028 C 
ATOM     10  C   LIG d   1      -4.670  92.060 116.774  0.00  0.00     0.006 C 
ENDBRANCH   8   9
BRANCH   8  11
ATOM     11  C   LIG d   1      -2.635  88.974 117.155  0.00  0.00     0.028 C 
ATOM     12  C   LIG d   1      -1.220  88.414 117.371  0.00  0.00     0.006 C 
ENDBRANCH   8  11
ENDBRANCH   7   8
ENDBRANCH   1   7
BRANCH   6  13
ATOM     13  N   LIG d   1      -2.360  93.890 118.949  0.00  0.00    -0.311 N 
ATOM     14  C   LIG d   1      -3.182  93.653 119.970  0.00  0.00     0.210 C 
ATOM     15  C   LIG d   1      -4.538  94.360 119.887  0.00  0.00     0.109 C 
ATOM     16  O   LIG d   1      -2.903  92.950 120.953  0.00  0.00    -0.276 OA
ATOM     17  H   LIG d   1      -2.655  94.498 118.210  0.00  0.00     0.149 HD
ENDBRANCH   6  13
BRANCH   5  18
ATOM     18  N   LIG d   1       0.243  95.271 119.753  0.00  0.00     0.381 N 
ATOM     19  H   LIG d   1       1.033  95.002 120.305  0.00  0.00    -0.090 HD
ATOM     20  H   LIG d   1      -0.578  95.211 120.328  0.00  0.00    -0.090 HD
ATOM     21  H   LIG d   1       0.360  96.204 119.424  0.00  0.00    -0.090 HD
ENDBRANCH   5  18
BRANCH   3  22
ATOM     22  C   LIG d   1       2.547  92.370 116.717  0.00  0.00     0.382 C 
ATOM     23  O   LIG d   1       2.612  91.351 115.988  0.00  0.00    -0.241 OA
ATOM     24  O   LIG d   1       3.543  93.111 116.825  0.00  0.00    -0.241 OA
ENDBRANCH   3  22
TORSDOF 7
ENDMDL
MODEL 9
REMARK VINA RESULT:      -4.4      2.700      5.756
REMARK  7 active torsions:
REMARK  status: ('A' for Active; 'I' for Inactive)
REMARK    1  A    between atoms: C_2  and  C_3 
REMARK    2  A    between atoms: C_3  and  O_6 
REMARK    3  A    between atoms: C_3  and  C_4 
REMARK    4  A    between atoms: C_7  and  O_6 
REMARK    5  A    between atoms: C_9  and  C_10 
REMARK    6  A    between atoms: N_15  and  C_14 
REMARK    7  A    between atoms: N_20  and  C_19 
REMARK       I    between atoms: C_22  and  N_20 
ROOT
ATOM      1  C   LIG d   1      -3.168  92.913 117.857  0.00  0.00     0.161 C 
ATOM      2  C   LIG d   1      -4.458  92.723 117.333  0.00  0.00     0.016 C 
ATOM      3  C   LIG d   1      -4.887  91.514 116.739  0.00  0.00     0.038 C 
ATOM      4  C   LIG d   1      -4.097  90.355 116.764  0.00  0.00     0.028 C 
ATOM      5  C   LIG d   1      -2.601  90.643 116.830  0.00  0.00    -0.047 C 
ATOM      6  C   LIG d   1      -2.329  91.625 117.992  0.00  0.00     0.091 C 
ENDROOT
BRANCH   1   7
ATOM      7  O   LIG d   1      -3.250  93.593 119.125  0.00  0.00    -0.368 OA
BRANCH   7   8
ATOM      8  C   LIG d   1      -3.682  92.791 120.251  0.00  0.00     0.119 C 
BRANCH   8   9
ATOM      9  C   LIG d   1      -4.926  93.471 120.855  0.00  0.00     0.028 C 
ATOM     10  C   LIG d   1      -6.215  92.673 120.597  0.00  0.00     0.006 C 
ENDBRANCH   8   9
BRANCH   8  11
ATOM     11  C   LIG d   1      -2.636  92.794 121.370  0.00  0.00     0.028 C 
ATOM     12  C   LIG d   1      -2.636  91.493 122.189  0.00  0.00     0.006 C 
ENDBRANCH   8  11
ENDBRANCH   7   8
ENDBRANCH   1   7
BRANCH   6  13
ATOM     13  N   LIG d   1      -0.901  92.025 118.075  0.00  0.00    -0.311 N 
ATOM     14  C   LIG d   1      -0.023  91.447 118.893  0.00  0.00     0.210 C 
ATOM     15  C   LIG d   1       1.394  92.025 118.835  0.00  0.00     0.109 C 
ATOM     16  O   LIG d   1      -0.277  90.489 119.639  0.00  0.00    -0.276 OA
ATOM     17  H   LIG d   1      -0.602  92.774 117.481  0.00  0.00     0.149 HD
ENDBRANCH   6  13
BRANCH   5  18
ATOM     18  N   LIG d   1      -1.905  89.352 116.989  0.00  0.00     0.381 N 
ATOM     19  H   LIG d   1      -2.360  88.651 116.439  0.00  0.00    -0.090 HD
ATOM     20  H   LIG d   1      -1.951  89.074 117.954  0.00  0.00    -0.090 HD
ATOM     21  H   LIG d   1      -0.953  89.440 116.707  0.00  0.00    -0.090 HD
ENDBRANCH   5  18
BRANCH   3  22
ATOM     22  C   LIG d   1      -6.103  91.468 116.076  0.00  0.00     0.382 C 
ATOM     23  O   LIG d   1      -6.734  90.386 115.997  0.00  0.00    -0.241 OA
ATOM     24  O   LIG d   1      -6.557  92.484 115.517  0.00  0.00    -0.241 OA
ENDBRANCH   3  22
TORSDOF 7
ENDMDL
