MODEL 1
REMARK VINA RESULT:      -5.4      0.000      0.000
REMARK  7 active torsions:
REMARK  status: ('A' for Active; 'I' for Inactive)
REMARK    1  A    between atoms: C_2  and  C_3 
REMARK    2  A    between atoms: C_3  and  O_6 
REMARK    3  A    between atoms: C_3  and  C_4 
REMARK    4  A    between atoms: C_7  and  O_6 
REMARK    5  A    between atoms: C_9  and  C_10 
REMARK    6  A    between atoms: N_15  and  C_14 
REMARK    7  A    between atoms: N_20  and  C_19 
REMARK       I    between atoms: C_22  and  N_20 
ROOT
ATOM      1  C   LIG d   1      -5.988  93.544 118.087  0.00  0.00     0.161 C 
ATOM      2  C   LIG d   1      -6.930  92.684 117.497  0.00  0.00     0.016 C 
ATOM      3  C   LIG d   1      -6.587  91.456 116.888  0.00  0.00     0.038 C 
ATOM      4  C   LIG d   1      -5.289  90.928 116.960  0.00  0.00     0.028 C 
ATOM      5  C   LIG d   1      -4.209  91.995 117.104  0.00  0.00    -0.047 C 
ATOM      6  C   LIG d   1      -4.583  92.934 118.274  0.00  0.00     0.091 C 
ENDROOT
BRANCH   1   7
ATOM      7  O   LIG d   1      -6.494  94.033 119.345  0.00  0.00    -0.368 OA
BRANCH   7   8
ATOM      8  C   LIG d   1      -7.891  94.414 119.366  0.00  0.00     0.119 C 
BRANCH   8   9
ATOM      9  C   LIG d   1      -7.951  95.949 119.487  0.00  0.00     0.028 C 
ATOM     10  C   LIG d   1      -8.552  96.613 118.237  0.00  0.00     0.006 C 
ENDBRANCH   8   9
BRANCH   8  11
ATOM     11  C   LIG d   1      -8.596  93.881 120.617  0.00  0.00     0.028 C 
ATOM     12  C   LIG d   1      -8.004  92.551 121.113  0.00  0.00     0.006 C 
ENDBRANCH   8  11
ENDBRANCH   7   8
ENDBRANCH   1   7
BRANCH   6  13
ATOM     13  N   LIG d   1      -3.622  94.056 118.430  0.00  0.00    -0.311 N 
ATOM     14  C   LIG d   1      -2.572  94.014 119.249  0.00  0.00     0.210 C 
ATOM     15  C   LIG d   1      -1.720  95.287 119.273  0.00  0.00     0.109 C 
ATOM     16  O   LIG d   1      -2.248  93.032 119.933  0.00  0.00    -0.276 OA
ATOM     17  H   LIG d   1      -3.792  94.881 117.889  0.00  0.00     0.149 HD
ENDBRANCH   6  13
BRANCH   5  18
ATOM     18  N   LIG d   1      -2.923  91.303 117.307  0.00  0.00     0.381 N 
ATOM     19  H   LIG d   1      -2.254  91.937 117.697  0.00  0.00    -0.090 HD
ATOM     20  H   LIG d   1      -2.578  90.989 116.417  0.00  0.00    -0.090 HD
ATOM     21  H   LIG d   1      -3.047  90.524 117.916  0.00  0.00    -0.090 HD
ENDBRANCH   5  18
BRANCH   3  22
ATOM     22  C   LIG d   1      -7.541  90.760 116.161  0.00  0.00     0.382 C 
ATOM     23  O   LIG d   1      -8.408  91.385 115.504  0.00  0.00    -0.241 OA
ATOM     24  O   LIG d   1      -7.572  89.515 116.189  0.00  0.00    -0.241 OA
ENDBRANCH   3  22
TORSDOF 7
ENDMDL
MODEL 2
REMARK VINA RESULT:      -5.4      2.217      4.618
REMARK  7 active torsions:
REMARK  status: ('A' for Active; 'I' for Inactive)
REMARK    1  A    between atoms: C_2  and  C_3 
REMARK    2  A    between atoms: C_3  and  O_6 
REMARK    3  A    between atoms: C_3  and  C_4 
REMARK    4  A    between atoms: C_7  and  O_6 
REMARK    5  A    between atoms: C_9  and  C_10 
REMARK    6  A    between atoms: N_15  and  C_14 
REMARK    7  A    between atoms: N_20  and  C_19 
REMARK       I    between atoms: C_22  and  N_20 
ROOT
ATOM      1  C   LIG d   1      -4.452  91.496 117.843  0.00  0.00     0.161 C 
ATOM      2  C   LIG d   1      -5.421  90.855 117.053  0.00  0.00     0.016 C 
ATOM      3  C   LIG d   1      -6.634  91.466 116.661  0.00  0.00     0.038 C 
ATOM      4  C   LIG d   1      -6.895  92.822 116.909  0.00  0.00     0.028 C 
ATOM      5  C   LIG d   1      -6.171  93.364 118.137  0.00  0.00    -0.047 C 
ATOM      6  C   LIG d   1      -4.669  93.012 118.030  0.00  0.00     0.091 C 
ENDROOT
BRANCH   1   7
ATOM      7  O   LIG d   1      -3.138  91.241 117.308  0.00  0.00    -0.368 OA
BRANCH   7   8
ATOM      8  C   LIG d   1      -2.199  90.598 118.205  0.00  0.00     0.119 C 
BRANCH   8   9
ATOM      9  C   LIG d   1      -0.780  90.931 117.706  0.00  0.00     0.028 C 
ATOM     10  C   LIG d   1       0.064  91.650 118.771  0.00  0.00     0.006 C 
ENDBRANCH   8   9
BRANCH   8  11
ATOM     11  C   LIG d   1      -2.309  89.072 118.127  0.00  0.00     0.028 C 
ATOM     12  C   LIG d   1      -2.782  88.441 119.446  0.00  0.00     0.006 C 
ENDBRANCH   8  11
ENDBRANCH   7   8
ENDBRANCH   1   7
BRANCH   6  13
ATOM     13  N   LIG d   1      -3.902  93.433 119.231  0.00  0.00    -0.311 N 
ATOM     14  C   LIG d   1      -2.774  94.139 119.170  0.00  0.00     0.210 C 
ATOM     15  C   LIG d   1      -2.132  94.449 120.526  0.00  0.00     0.109 C 
ATOM     16  O   LIG d   1      -2.262  94.565 118.124  0.00  0.00    -0.276 OA
ATOM     17  H   LIG d   1      -4.263  93.156 120.123  0.00  0.00     0.149 HD
ENDBRANCH   6  13
BRANCH   5  18
ATOM     18  N   LIG d   1      -6.422  94.816 118.198  0.00  0.00     0.381 N 
ATOM     19  H   LIG d   1      -7.199  95.001 118.800  0.00  0.00    -0.090 HD
ATOM     20  H   LIG d   1      -6.652  95.145 117.277  0.00  0.00    -0.090 HD
ATOM     21  H   LIG d   1      -5.612  95.288 118.535  0.00  0.00    -0.090 HD
ENDBRANCH   5  18
BRANCH   3  22
ATOM     22  C   LIG d   1      -7.619  90.707 116.048  0.00  0.00     0.382 C 
ATOM     23  O   LIG d   1      -8.553  91.273 115.430  0.00  0.00    -0.241 OA
ATOM     24  O   LIG d   1      -7.610  89.465 116.143  0.00  0.00    -0.241 OA
ENDBRANCH   3  22
TORSDOF 7
ENDMDL
MODEL 3
REMARK VINA RESULT:      -5.2      2.091      4.740
REMARK  7 active torsions:
REMARK  status: ('A' for Active; 'I' for Inactive)
REMARK    1  A    between atoms: C_2  and  C_3 
REMARK    2  A    between atoms: C_3  and  O_6 
REMARK    3  A    between atoms: C_3  and  C_4 
REMARK    4  A    between atoms: C_7  and  O_6 
REMARK    5  A    between atoms: C_9  and  C_10 
REMARK    6  A    between atoms: N_15  and  C_14 
REMARK    7  A    between atoms: N_20  and  C_19 
REMARK       I    between atoms: C_22  and  N_20 
ROOT
ATOM      1  C   LIG d   1      -5.962  93.347 118.407  0.00  0.00     0.161 C 
ATOM      2  C   LIG d   1      -7.216  93.912 118.123  0.00  0.00     0.016 C 
ATOM      3  C   LIG d   1      -7.604  95.202 118.553  0.00  0.00     0.038 C 
ATOM      4  C   LIG d   1      -6.702  96.080 119.172  0.00  0.00     0.028 C 
ATOM      5  C   LIG d   1      -5.583  95.367 119.925  0.00  0.00    -0.047 C 
ATOM      6  C   LIG d   1      -4.924  94.333 118.985  0.00  0.00     0.091 C 
ENDROOT
BRANCH   1   7
ATOM      7  O   LIG d   1      -5.438  92.703 117.229  0.00  0.00    -0.368 OA
BRANCH   7   8
ATOM      8  C   LIG d   1      -5.366  91.256 117.272  0.00  0.00     0.119 C 
BRANCH   8   9
ATOM      9  C   LIG d   1      -3.879  90.870 117.384  0.00  0.00     0.028 C 
ATOM     10  C   LIG d   1      -3.575  90.070 118.662  0.00  0.00     0.006 C 
ENDBRANCH   8   9
BRANCH   8  11
ATOM     11  C   LIG d   1      -5.849  90.634 115.958  0.00  0.00     0.028 C 
ATOM     12  C   LIG d   1      -7.354  90.323 115.964  0.00  0.00     0.006 C 
ENDBRANCH   8  11
ENDBRANCH   7   8
ENDBRANCH   1   7
BRANCH   6  13
ATOM     13  N   LIG d   1      -3.875  93.532 119.668  0.00  0.00    -0.311 N 
ATOM     14  C   LIG d   1      -2.577  93.824 119.612  0.00  0.00     0.210 C 
ATOM     15  C   LIG d   1      -1.663  92.858 120.372  0.00  0.00     0.109 C 
ATOM     16  O   LIG d   1      -2.099  94.811 119.032  0.00  0.00    -0.276 OA
ATOM     17  H   LIG d   1      -4.179  92.732 120.188  0.00  0.00     0.149 HD
ENDBRANCH   6  13
BRANCH   5  18
ATOM     18  N   LIG d   1      -4.641  96.397 120.403  0.00  0.00     0.381 N 
ATOM     19  H   LIG d   1      -4.848  97.273 119.967  0.00  0.00    -0.090 HD
ATOM     20  H   LIG d   1      -3.708  96.128 120.145  0.00  0.00    -0.090 HD
ATOM     21  H   LIG d   1      -4.708  96.487 121.393  0.00  0.00    -0.090 HD
ENDBRANCH   5  18
BRANCH   3  22
ATOM     22  C   LIG d   1      -8.920  95.610 118.401  0.00  0.00     0.382 C 
ATOM     23  O   LIG d   1      -9.174  96.771 118.000  0.00  0.00    -0.241 OA
ATOM     24  O   LIG d   1      -9.857  94.846 118.702  0.00  0.00    -0.241 OA
ENDBRANCH   3  22
TORSDOF 7
ENDMDL
MODEL 4
REMARK VINA RESULT:      -5.2      2.211      4.733
REMARK  7 active torsions:
REMARK  status: ('A' for Active; 'I' for Inactive)
REMARK    1  A    between atoms: C_2  and  C_3 
REMARK    2  A    between atoms: C_3  and  O_6 
REMARK    3  A    between atoms: C_3  and  C_4 
REMARK    4  A    between atoms: C_7  and  O_6 
REMARK    5  A    between atoms: C_9  and  C_10 
REMARK    6  A    between atoms: N_15  and  C_14 
REMARK    7  A    between atoms: N_20  and  C_19 
REMARK       I    between atoms: C_22  and  N_20 
ROOT
ATOM      1  C   LIG d   1      -4.345  91.592 117.838  0.00  0.00     0.161 C 
ATOM      2  C   LIG d   1      -5.263  90.949 116.991  0.00  0.00     0.016 C 
ATOM      3  C   LIG d   1      -6.495  91.522 116.600  0.00  0.00     0.038 C 
ATOM      4  C   LIG d   1      -6.826  92.850 116.909  0.00  0.00     0.028 C 
ATOM      5  C   LIG d   1      -6.157  93.361 118.180  0.00  0.00    -0.047 C 
ATOM      6  C   LIG d   1      -4.638  93.085 118.094  0.00  0.00     0.091 C 
ENDROOT
BRANCH   1   7
ATOM      7  O   LIG d   1      -3.008  91.426 117.325  0.00  0.00    -0.368 OA
BRANCH   7   8
ATOM      8  C   LIG d   1      -2.299  90.242 117.767  0.00  0.00     0.119 C 
BRANCH   8   9
ATOM      9  C   LIG d   1      -2.634  90.030 119.256  0.00  0.00     0.028 C 
ATOM     10  C   LIG d   1      -2.817  88.545 119.610  0.00  0.00     0.006 C 
ENDBRANCH   8   9
BRANCH   8  11
ATOM     11  C   LIG d   1      -0.782  90.450 117.718  0.00  0.00     0.028 C 
ATOM     12  C   LIG d   1      -0.352  91.824 118.256  0.00  0.00     0.006 C 
ENDBRANCH   8  11
ENDBRANCH   7   8
ENDBRANCH   1   7
BRANCH   6  13
ATOM     13  N   LIG d   1      -3.920  93.478 119.334  0.00  0.00    -0.311 N 
ATOM     14  C   LIG d   1      -2.876  94.306 119.346  0.00  0.00     0.210 C 
ATOM     15  C   LIG d   1      -2.270  94.563 120.729  0.00  0.00     0.109 C 
ATOM     16  O   LIG d   1      -2.415  94.876 118.346  0.00  0.00    -0.276 OA
ATOM     17  H   LIG d   1      -4.247  93.086 120.195  0.00  0.00     0.149 HD
ENDBRANCH   6  13
BRANCH   5  18
ATOM     18  N   LIG d   1      -6.478  94.795 118.307  0.00  0.00     0.381 N 
ATOM     19  H   LIG d   1      -6.842  94.981 119.221  0.00  0.00    -0.090 HD
ATOM     20  H   LIG d   1      -7.184  95.031 117.633  0.00  0.00    -0.090 HD
ATOM     21  H   LIG d   1      -5.661  95.343 118.149  0.00  0.00    -0.090 HD
ENDBRANCH   5  18
BRANCH   3  22
ATOM     22  C   LIG d   1      -7.428  90.750 115.924  0.00  0.00     0.382 C 
ATOM     23  O   LIG d   1      -8.447  91.290 115.430  0.00  0.00    -0.241 OA
ATOM     24  O   LIG d   1      -7.285  89.516 115.841  0.00  0.00    -0.241 OA
ENDBRANCH   3  22
TORSDOF 7
ENDMDL
MODEL 5
REMARK VINA RESULT:      -4.6      4.238      6.860
REMARK  7 active torsions:
REMARK  status: ('A' for Active; 'I' for Inactive)
REMARK    1  A    between atoms: C_2  and  C_3 
REMARK    2  A    between atoms: C_3  and  O_6 
REMARK    3  A    between atoms: C_3  and  C_4 
REMARK    4  A    between atoms: C_7  and  O_6 
REMARK    5  A    between atoms: C_9  and  C_10 
REMARK    6  A    between atoms: N_15  and  C_14 
REMARK    7  A    between atoms: N_20  and  C_19 
REMARK       I    between atoms: C_22  and  N_20 
ROOT
ATOM      1  C   LIG d   1      -1.059  91.194 117.989  0.00  0.00     0.161 C 
ATOM      2  C   LIG d   1      -2.381  90.952 117.581  0.00  0.00     0.016 C 
ATOM      3  C   LIG d   1      -3.388  91.945 117.575  0.00  0.00     0.038 C 
ATOM      4  C   LIG d   1      -3.101  93.293 117.834  0.00  0.00     0.028 C 
ATOM      5  C   LIG d   1      -1.889  93.492 118.739  0.00  0.00    -0.047 C 
ATOM      6  C   LIG d   1      -0.700  92.684 118.170  0.00  0.00     0.091 C 
ENDROOT
BRANCH   1   7
ATOM      7  O   LIG d   1      -0.142  90.566 117.072  0.00  0.00    -0.368 OA
BRANCH   7   8
ATOM      8  C   LIG d   1       0.753  89.579 117.641  0.00  0.00     0.119 C 
BRANCH   8   9
ATOM      9  C   LIG d   1       2.047  89.589 116.804  0.00  0.00     0.028 C 
ATOM     10  C   LIG d   1       3.309  89.693 117.677  0.00  0.00     0.006 C 
ENDBRANCH   8   9
BRANCH   8  11
ATOM     11  C   LIG d   1       0.186  88.163 117.495  0.00  0.00     0.028 C 
ATOM     12  C   LIG d   1      -0.391  87.614 118.809  0.00  0.00     0.006 C 
ENDBRANCH   8  11
ENDBRANCH   7   8
ENDBRANCH   1   7
BRANCH   6  13
ATOM     13  N   LIG d   1       0.502  92.755 119.041  0.00  0.00    -0.311 N 
ATOM     14  C   LIG d   1       1.728  92.994 118.579  0.00  0.00     0.210 C 
ATOM     15  C   LIG d   1       2.829  93.005 119.645  0.00  0.00     0.109 C 
ATOM     16  O   LIG d   1       2.004  93.229 117.393  0.00  0.00    -0.276 OA
ATOM     17  H   LIG d   1       0.364  92.607 120.021  0.00  0.00     0.149 HD
ENDBRANCH   6  13
BRANCH   5  18
ATOM     18  N   LIG d   1      -1.621  94.940 118.814  0.00  0.00     0.381 N 
ATOM     19  H   LIG d   1      -2.373  95.446 118.389  0.00  0.00    -0.090 HD
ATOM     20  H   LIG d   1      -0.778  95.142 118.306  0.00  0.00    -0.090 HD
ATOM     21  H   LIG d   1      -1.520  95.219 119.765  0.00  0.00    -0.090 HD
ENDBRANCH   5  18
BRANCH   3  22
ATOM     22  C   LIG d   1      -4.707  91.585 117.345  0.00  0.00     0.382 C 
ATOM     23  O   LIG d   1      -5.388  92.209 116.495  0.00  0.00    -0.241 OA
ATOM     24  O   LIG d   1      -5.238  90.673 118.007  0.00  0.00    -0.241 OA
ENDBRANCH   3  22
TORSDOF 7
ENDMDL
MODEL 6
REMARK VINA RESULT:      -4.5      2.273      4.330
REMARK  7 active torsions:
REMARK  status: ('A' for Active; 'I' for Inactive)
REMARK    1  A    between atoms: C_2  and  C_3 
REMARK    2  A    between atoms: C_3  and  O_6 
REMARK    3  A    between atoms: C_3  and  C_4 
REMARK    4  A    between atoms: C_7  and  O_6 
REMARK    5  A    between atoms: C_9  and  C_10 
REMARK    6  A    between atoms: N_15  and  C_14 
REMARK    7  A    between atoms: N_20  and  C_19 
REMARK       I    between atoms: C_22  and  N_20 
ROOT
ATOM      1  C   LIG d   1      -5.153  94.117 119.191  0.00  0.00     0.161 C 
ATOM      2  C   LIG d   1      -6.332  94.882 119.184  0.00  0.00     0.016 C 
ATOM      3  C   LIG d   1      -7.418  94.629 118.316  0.00  0.00     0.038 C 
ATOM      4  C   LIG d   1      -7.462  93.494 117.493  0.00  0.00     0.028 C 
ATOM      5  C   LIG d   1      -6.082  92.976 117.101  0.00  0.00    -0.047 C 
ATOM      6  C   LIG d   1      -5.228  92.807 118.379  0.00  0.00     0.091 C 
ENDROOT
BRANCH   1   7
ATOM      7  O   LIG d   1      -4.757  93.842 120.549  0.00  0.00    -0.368 OA
BRANCH   7   8
ATOM      8  C   LIG d   1      -3.536  94.480 120.998  0.00  0.00     0.119 C 
BRANCH   8   9
ATOM      9  C   LIG d   1      -3.029  95.371 119.847  0.00  0.00     0.028 C 
ATOM     10  C   LIG d   1      -1.581  95.042 119.446  0.00  0.00     0.006 C 
ENDBRANCH   8   9
BRANCH   8  11
ATOM     11  C   LIG d   1      -2.425  93.453 121.237  0.00  0.00     0.028 C 
ATOM     12  C   LIG d   1      -2.965  92.086 121.685  0.00  0.00     0.006 C 
ENDBRANCH   8  11
ENDBRANCH   7   8
ENDBRANCH   1   7
BRANCH   6  13
ATOM     13  N   LIG d   1      -3.835  92.384 118.078  0.00  0.00    -0.311 N 
ATOM     14  C   LIG d   1      -3.450  91.110 118.030  0.00  0.00     0.210 C 
ATOM     15  C   LIG d   1      -1.965  90.895 117.723  0.00  0.00     0.109 C 
ATOM     16  O   LIG d   1      -4.204  90.137 118.181  0.00  0.00    -0.276 OA
ATOM     17  H   LIG d   1      -3.165  93.109 117.911  0.00  0.00     0.149 HD
ENDBRANCH   6  13
BRANCH   5  18
ATOM     18  N   LIG d   1      -6.272  91.714 116.362  0.00  0.00     0.381 N 
ATOM     19  H   LIG d   1      -5.844  90.961 116.861  0.00  0.00    -0.090 HD
ATOM     20  H   LIG d   1      -5.826  91.793 115.465  0.00  0.00    -0.090 HD
ATOM     21  H   LIG d   1      -7.245  91.533 116.242  0.00  0.00    -0.090 HD
ENDBRANCH   5  18
BRANCH   3  22
ATOM     22  C   LIG d   1      -8.460  95.541 118.235  0.00  0.00     0.382 C 
ATOM     23  O   LIG d   1      -8.217  96.753 118.017  0.00  0.00    -0.241 OA
ATOM     24  O   LIG d   1      -9.636  95.175 118.422  0.00  0.00    -0.241 OA
ENDBRANCH   3  22
TORSDOF 7
ENDMDL
MODEL 7
REMARK VINA RESULT:      -4.5      2.292      4.951
REMARK  7 active torsions:
REMARK  status: ('A' for Active; 'I' for Inactive)
REMARK    1  A    between atoms: C_2  and  C_3 
REMARK    2  A    between atoms: C_3  and  O_6 
REMARK    3  A    between atoms: C_3  and  C_4 
REMARK    4  A    between atoms: C_7  and  O_6 
REMARK    5  A    between atoms: C_9  and  C_10 
REMARK    6  A    between atoms: N_15  and  C_14 
REMARK    7  A    between atoms: N_20  and  C_19 
REMARK       I    between atoms: C_22  and  N_20 
ROOT
ATOM      1  C   LIG d   1      -4.929  93.541 119.008  0.00  0.00     0.161 C 
ATOM      2  C   LIG d   1      -4.863  92.491 118.077  0.00  0.00     0.016 C 
ATOM      3  C   LIG d   1      -5.883  92.220 117.136  0.00  0.00     0.038 C 
ATOM      4  C   LIG d   1      -6.978  93.079 116.961  0.00  0.00     0.028 C 
ATOM      5  C   LIG d   1      -7.337  93.867 118.216  0.00  0.00    -0.047 C 
ATOM      6  C   LIG d   1      -6.064  94.556 118.757  0.00  0.00     0.091 C 
ENDROOT
BRANCH   1   7
ATOM      7  O   LIG d   1      -3.657  94.217 119.073  0.00  0.00    -0.368 OA
BRANCH   7   8
ATOM      8  C   LIG d   1      -2.526  93.499 118.522  0.00  0.00     0.119 C 
BRANCH   8   9
ATOM      9  C   LIG d   1      -1.643  93.050 119.703  0.00  0.00     0.028 C 
ATOM     10  C   LIG d   1      -0.913  91.727 119.419  0.00  0.00     0.006 C 
ENDBRANCH   8   9
BRANCH   8  11
ATOM     11  C   LIG d   1      -1.638  94.420 117.680  0.00  0.00     0.028 C 
ATOM     12  C   LIG d   1      -1.280  95.728 118.404  0.00  0.00     0.006 C 
ENDBRANCH   8  11
ENDBRANCH   7   8
ENDBRANCH   1   7
BRANCH   6  13
ATOM     13  N   LIG d   1      -6.309  95.280 120.032  0.00  0.00    -0.311 N 
ATOM     14  C   LIG d   1      -6.624  96.572 120.093  0.00  0.00     0.210 C 
ATOM     15  C   LIG d   1      -6.816  97.125 121.509  0.00  0.00     0.109 C 
ATOM     16  O   LIG d   1      -6.795  97.306 119.108  0.00  0.00    -0.276 OA
ATOM     17  H   LIG d   1      -6.222  94.753 120.879  0.00  0.00     0.149 HD
ENDBRANCH   6  13
BRANCH   5  18
ATOM     18  N   LIG d   1      -8.402  94.821 117.855  0.00  0.00     0.381 N 
ATOM     19  H   LIG d   1      -8.948  95.042 118.664  0.00  0.00    -0.090 HD
ATOM     20  H   LIG d   1      -9.005  94.392 117.175  0.00  0.00    -0.090 HD
ATOM     21  H   LIG d   1      -8.002  95.652 117.477  0.00  0.00    -0.090 HD
ENDBRANCH   5  18
BRANCH   3  22
ATOM     22  C   LIG d   1      -5.833  91.055 116.385  0.00  0.00     0.382 C 
ATOM     23  O   LIG d   1      -6.630  90.890 115.430  0.00  0.00    -0.241 OA
ATOM     24  O   LIG d   1      -5.032  90.148 116.678  0.00  0.00    -0.241 OA
ENDBRANCH   3  22
TORSDOF 7
ENDMDL
MODEL 8
REMARK VINA RESULT:      -4.4      2.415      5.244
REMARK  7 active torsions:
REMARK  status: ('A' for Active; 'I' for Inactive)
REMARK    1  A    between atoms: C_2  and  C_3 
REMARK    2  A    between atoms: C_3  and  O_6 
REMARK    3  A    between atoms: C_3  and  C_4 
REMARK    4  A    between atoms: C_7  and  O_6 
REMARK    5  A    between atoms: C_9  and  C_10 
REMARK    6  A    between atoms: N_15  and  C_14 
REMARK    7  A    between atoms: N_20  and  C_19 
REMARK       I    between atoms: C_22  and  N_20 
ROOT
ATOM      1  C   LIG d   1      -4.263  93.239 119.297  0.00  0.00     0.161 C 
ATOM      2  C   LIG d   1      -3.346  92.249 118.907  0.00  0.00     0.016 C 
ATOM      3  C   LIG d   1      -3.716  91.078 118.207  0.00  0.00     0.038 C 
ATOM      4  C   LIG d   1      -5.015  90.889 117.713  0.00  0.00     0.028 C 
ATOM      5  C   LIG d   1      -6.082  91.623 118.518  0.00  0.00    -0.047 C 
ATOM      6  C   LIG d   1      -5.666  93.104 118.670  0.00  0.00     0.091 C 
ENDROOT
BRANCH   1   7
ATOM      7  O   LIG d   1      -3.717  94.545 119.025  0.00  0.00    -0.368 OA
BRANCH   7   8
ATOM      8  C   LIG d   1      -2.311  94.724 119.328  0.00  0.00     0.119 C 
BRANCH   8   9
ATOM      9  C   LIG d   1      -2.216  95.641 120.562  0.00  0.00     0.028 C 
ATOM     10  C   LIG d   1      -1.943  94.856 121.857  0.00  0.00     0.006 C 
ENDBRANCH   8   9
BRANCH   8  11
ATOM     11  C   LIG d   1      -1.591  95.478 118.206  0.00  0.00     0.028 C 
ATOM     12  C   LIG d   1      -0.691  94.566 117.357  0.00  0.00     0.006 C 
ENDBRANCH   8  11
ENDBRANCH   7   8
ENDBRANCH   1   7
BRANCH   6  13
ATOM     13  N   LIG d   1      -6.613  93.875 119.516  0.00  0.00    -0.311 N 
ATOM     14  C   LIG d   1      -7.690  94.494 119.035  0.00  0.00     0.210 C 
ATOM     15  C   LIG d   1      -8.522  95.248 120.076  0.00  0.00     0.109 C 
ATOM     16  O   LIG d   1      -8.053  94.462 117.849  0.00  0.00    -0.276 OA
ATOM     17  H   LIG d   1      -6.412  93.926 120.496  0.00  0.00     0.149 HD
ENDBRANCH   6  13
BRANCH   5  18
ATOM     18  N   LIG d   1      -7.367  91.452 117.814  0.00  0.00     0.381 N 
ATOM     19  H   LIG d   1      -7.721  90.530 117.974  0.00  0.00    -0.090 HD
ATOM     20  H   LIG d   1      -7.215  91.565 116.827  0.00  0.00    -0.090 HD
ATOM     21  H   LIG d   1      -8.024  92.128 118.136  0.00  0.00    -0.090 HD
ENDBRANCH   5  18
BRANCH   3  22
ATOM     22  C   LIG d   1      -2.789  90.062 118.029  0.00  0.00     0.382 C 
ATOM     23  O   LIG d   1      -3.137  88.864 118.169  0.00  0.00    -0.241 OA
ATOM     24  O   LIG d   1      -1.599  90.329 117.775  0.00  0.00    -0.241 OA
ENDBRANCH   3  22
TORSDOF 7
ENDMDL
MODEL 9
REMARK VINA RESULT:      -4.3      2.472      4.405
REMARK  7 active torsions:
REMARK  status: ('A' for Active; 'I' for Inactive)
REMARK    1  A    between atoms: C_2  and  C_3 
REMARK    2  A    between atoms: C_3  and  O_6 
REMARK    3  A    between atoms: C_3  and  C_4 
REMARK    4  A    between atoms: C_7  and  O_6 
REMARK    5  A    between atoms: C_9  and  C_10 
REMARK    6  A    between atoms: N_15  and  C_14 
REMARK    7  A    between atoms: N_20  and  C_19 
REMARK       I    between atoms: C_22  and  N_20 
ROOT
ATOM      1  C   LIG d   1      -3.604  93.225 118.923  0.00  0.00     0.161 C 
ATOM      2  C   LIG d   1      -4.819  93.928 118.966  0.00  0.00     0.016 C 
ATOM      3  C   LIG d   1      -5.958  93.561 118.213  0.00  0.00     0.038 C 
ATOM      4  C   LIG d   1      -6.006  92.369 117.475  0.00  0.00     0.028 C 
ATOM      5  C   LIG d   1      -4.636  91.894 117.002  0.00  0.00    -0.047 C 
ATOM      6  C   LIG d   1      -3.672  91.859 118.209  0.00  0.00     0.091 C 
ENDROOT
BRANCH   1   7
ATOM      7  O   LIG d   1      -3.082  93.068 120.257  0.00  0.00    -0.368 OA
BRANCH   7   8
ATOM      8  C   LIG d   1      -3.582  91.933 121.007  0.00  0.00     0.119 C 
BRANCH   8   9
ATOM      9  C   LIG d   1      -4.331  92.484 122.236  0.00  0.00     0.028 C 
ATOM     10  C   LIG d   1      -5.851  92.269 122.142  0.00  0.00     0.006 C 
ENDBRANCH   8   9
BRANCH   8  11
ATOM     11  C   LIG d   1      -2.435  91.092 121.575  0.00  0.00     0.028 C 
ATOM     12  C   LIG d   1      -1.051  91.686 121.267  0.00  0.00     0.006 C 
ENDBRANCH   8  11
ENDBRANCH   7   8
ENDBRANCH   1   7
BRANCH   6  13
ATOM     13  N   LIG d   1      -2.288  91.486 117.819  0.00  0.00    -0.311 N 
ATOM     14  C   LIG d   1      -1.798  90.253 117.943  0.00  0.00     0.210 C 
ATOM     15  C   LIG d   1      -0.341  90.089 117.500  0.00  0.00     0.109 C 
ATOM     16  O   LIG d   1      -2.441  89.274 118.348  0.00  0.00    -0.276 OA
ATOM     17  H   LIG d   1      -1.706  92.213 117.451  0.00  0.00     0.149 HD
ENDBRANCH   6  13
BRANCH   5  18
ATOM     18  N   LIG d   1      -4.817  90.575 116.367  0.00  0.00     0.381 N 
ATOM     19  H   LIG d   1      -5.082  90.693 115.410  0.00  0.00    -0.090 HD
ATOM     20  H   LIG d   1      -5.554  90.084 116.841  0.00  0.00    -0.090 HD
ATOM     21  H   LIG d   1      -3.971  90.051 116.422  0.00  0.00    -0.090 HD
ENDBRANCH   5  18
BRANCH   3  22
ATOM     22  C   LIG d   1      -7.052  94.411 118.162  0.00  0.00     0.382 C 
ATOM     23  O   LIG d   1      -8.131  94.016 117.658  0.00  0.00    -0.241 OA
ATOM     24  O   LIG d   1      -6.960  95.584 118.573  0.00  0.00    -0.241 OA
ENDBRANCH   3  22
TORSDOF 7
ENDMDL
