MODEL 1
REMARK VINA RESULT:      -4.5      0.000      0.000
REMARK  7 active torsions:
REMARK  status: ('A' for Active; 'I' for Inactive)
REMARK    1  A    between atoms: C_2  and  C_3 
REMARK    2  A    between atoms: C_3  and  O_6 
REMARK    3  A    between atoms: C_3  and  C_4 
REMARK    4  A    between atoms: C_7  and  O_6 
REMARK    5  A    between atoms: C_9  and  C_10 
REMARK    6  A    between atoms: N_15  and  C_14 
REMARK    7  A    between atoms: N_20  and  C_19 
REMARK       I    between atoms: C_22  and  N_20 
ROOT
ATOM      1  C   LIG d   1       0.119  90.086 116.726  0.00  0.00     0.161 C 
ATOM      2  C   LIG d   1       1.517  89.993 116.617  0.00  0.00     0.016 C 
ATOM      3  C   LIG d   1       2.403  90.971 117.125  0.00  0.00     0.038 C 
ATOM      4  C   LIG d   1       1.954  92.039 117.916  0.00  0.00     0.028 C 
ATOM      5  C   LIG d   1       0.513  92.445 117.625  0.00  0.00    -0.047 C 
ATOM      6  C   LIG d   1      -0.384  91.187 117.682  0.00  0.00     0.091 C 
ENDROOT
BRANCH   1   7
ATOM      7  O   LIG d   1      -0.427  88.806 117.104  0.00  0.00    -0.368 OA
BRANCH   7   8
ATOM      8  C   LIG d   1      -0.074  88.328 118.426  0.00  0.00     0.119 C 
BRANCH   8   9
ATOM      9  C   LIG d   1       0.574  86.940 118.258  0.00  0.00     0.028 C 
ATOM     10  C   LIG d   1      -0.111  85.866 119.119  0.00  0.00     0.006 C 
ENDBRANCH   8   9
BRANCH   8  11
ATOM     11  C   LIG d   1      -1.320  88.094 119.284  0.00  0.00     0.028 C 
ATOM     12  C   LIG d   1      -1.357  88.983 120.537  0.00  0.00     0.006 C 
ENDBRANCH   8  11
ENDBRANCH   7   8
ENDBRANCH   1   7
BRANCH   6  13
ATOM     13  N   LIG d   1      -1.796  91.482 117.326  0.00  0.00    -0.311 N 
ATOM     14  C   LIG d   1      -2.710  91.872 118.213  0.00  0.00     0.210 C 
ATOM     15  C   LIG d   1      -4.111  92.104 117.638  0.00  0.00     0.109 C 
ATOM     16  O   LIG d   1      -2.485  92.080 119.414  0.00  0.00    -0.276 OA
ATOM     17  H   LIG d   1      -2.058  91.369 116.366  0.00  0.00     0.149 HD
ENDBRANCH   6  13
BRANCH   5  18
ATOM     18  N   LIG d   1       0.132  93.473 118.611  0.00  0.00     0.381 N 
ATOM     19  H   LIG d   1      -0.568  94.072 118.222  0.00  0.00    -0.090 HD
ATOM     20  H   LIG d   1       0.939  94.030 118.829  0.00  0.00    -0.090 HD
ATOM     21  H   LIG d   1      -0.215  93.039 119.439  0.00  0.00    -0.090 HD
ENDBRANCH   5  18
BRANCH   3  22
ATOM     22  C   LIG d   1       3.752  90.906 116.810  0.00  0.00     0.382 C 
ATOM     23  O   LIG d   1       4.613  91.182 117.680  0.00  0.00    -0.241 OA
ATOM     24  O   LIG d   1       4.117  90.618 115.655  0.00  0.00    -0.241 OA
ENDBRANCH   3  22
TORSDOF 7
ENDMDL
MODEL 2
REMARK VINA RESULT:      -4.4      1.871      2.492
REMARK  7 active torsions:
REMARK  status: ('A' for Active; 'I' for Inactive)
REMARK    1  A    between atoms: C_2  and  C_3 
REMARK    2  A    between atoms: C_3  and  O_6 
REMARK    3  A    between atoms: C_3  and  C_4 
REMARK    4  A    between atoms: C_7  and  O_6 
REMARK    5  A    between atoms: C_9  and  C_10 
REMARK    6  A    between atoms: N_15  and  C_14 
REMARK    7  A    between atoms: N_20  and  C_19 
REMARK       I    between atoms: C_22  and  N_20 
ROOT
ATOM      1  C   LIG d   1       1.348  89.906 116.152  0.00  0.00     0.161 C 
ATOM      2  C   LIG d   1       2.432  89.075 115.825  0.00  0.00     0.016 C 
ATOM      3  C   LIG d   1       3.767  89.354 116.198  0.00  0.00     0.038 C 
ATOM      4  C   LIG d   1       4.090  90.413 117.060  0.00  0.00     0.028 C 
ATOM      5  C   LIG d   1       3.094  91.567 117.001  0.00  0.00    -0.047 C 
ATOM      6  C   LIG d   1       1.666  91.007 117.186  0.00  0.00     0.091 C 
ENDROOT
BRANCH   1   7
ATOM      7  O   LIG d   1       0.236  89.105 116.599  0.00  0.00    -0.368 OA
BRANCH   7   8
ATOM      8  C   LIG d   1       0.214  88.776 118.010  0.00  0.00     0.119 C 
BRANCH   8   9
ATOM      9  C   LIG d   1       0.450  87.258 118.135  0.00  0.00     0.028 C 
ATOM     10  C   LIG d   1      -0.488  86.601 119.161  0.00  0.00     0.006 C 
ENDBRANCH   8   9
BRANCH   8  11
ATOM     11  C   LIG d   1      -1.170  89.022 118.618  0.00  0.00     0.028 C 
ATOM     12  C   LIG d   1      -2.112  89.780 117.668  0.00  0.00     0.006 C 
ENDBRANCH   8  11
ENDBRANCH   7   8
ENDBRANCH   1   7
BRANCH   6  13
ATOM     13  N   LIG d   1       0.623  92.058 117.058  0.00  0.00    -0.311 N 
ATOM     14  C   LIG d   1       0.111  92.713 118.099  0.00  0.00     0.210 C 
ATOM     15  C   LIG d   1      -0.966  93.744 117.747  0.00  0.00     0.109 C 
ATOM     16  O   LIG d   1       0.470  92.562 119.276  0.00  0.00    -0.276 OA
ATOM     17  H   LIG d   1       0.297  92.267 116.135  0.00  0.00     0.149 HD
ENDBRANCH   6  13
BRANCH   5  18
ATOM     18  N   LIG d   1       3.475  92.537 118.045  0.00  0.00     0.381 N 
ATOM     19  H   LIG d   1       2.654  92.880 118.504  0.00  0.00    -0.090 HD
ATOM     20  H   LIG d   1       3.941  93.315 117.612  0.00  0.00    -0.090 HD
ATOM     21  H   LIG d   1       4.079  92.105 118.709  0.00  0.00    -0.090 HD
ENDBRANCH   5  18
BRANCH   3  22
ATOM     22  C   LIG d   1       4.801  88.592 115.675  0.00  0.00     0.382 C 
ATOM     23  O   LIG d   1       4.634  87.366 115.471  0.00  0.00    -0.241 OA
ATOM     24  O   LIG d   1       5.912  89.107 115.445  0.00  0.00    -0.241 OA
ENDBRANCH   3  22
TORSDOF 7
ENDMDL
MODEL 3
REMARK VINA RESULT:      -4.3      1.472      1.922
REMARK  7 active torsions:
REMARK  status: ('A' for Active; 'I' for Inactive)
REMARK    1  A    between atoms: C_2  and  C_3 
REMARK    2  A    between atoms: C_3  and  O_6 
REMARK    3  A    between atoms: C_3  and  C_4 
REMARK    4  A    between atoms: C_7  and  O_6 
REMARK    5  A    between atoms: C_9  and  C_10 
REMARK    6  A    between atoms: N_15  and  C_14 
REMARK    7  A    between atoms: N_20  and  C_19 
REMARK       I    between atoms: C_22  and  N_20 
ROOT
ATOM      1  C   LIG d   1       0.626  91.734 117.073  0.00  0.00     0.161 C 
ATOM      2  C   LIG d   1       1.997  91.654 117.366  0.00  0.00     0.016 C 
ATOM      3  C   LIG d   1       2.560  92.103 118.583  0.00  0.00     0.038 C 
ATOM      4  C   LIG d   1       1.763  92.526 119.657  0.00  0.00     0.028 C 
ATOM      5  C   LIG d   1       0.417  93.097 119.224  0.00  0.00    -0.047 C 
ATOM      6  C   LIG d   1      -0.273  92.090 118.275  0.00  0.00     0.091 C 
ENDROOT
BRANCH   1   7
ATOM      7  O   LIG d   1       0.184  90.505 116.464  0.00  0.00    -0.368 OA
BRANCH   7   8
ATOM      8  C   LIG d   1       0.174  89.337 117.321  0.00  0.00     0.119 C 
BRANCH   8   9
ATOM      9  C   LIG d   1       0.866  88.194 116.554  0.00  0.00     0.028 C 
ATOM     10  C   LIG d   1       1.670  87.267 117.482  0.00  0.00     0.006 C 
ENDBRANCH   8   9
BRANCH   8  11
ATOM     11  C   LIG d   1      -1.254  88.846 117.577  0.00  0.00     0.028 C 
ATOM     12  C   LIG d   1      -1.535  88.578 119.064  0.00  0.00     0.006 C 
ENDBRANCH   8  11
ENDBRANCH   7   8
ENDBRANCH   1   7
BRANCH   6  13
ATOM     13  N   LIG d   1      -1.559  92.608 117.738  0.00  0.00    -0.311 N 
ATOM     14  C   LIG d   1      -2.732  92.422 118.339  0.00  0.00     0.210 C 
ATOM     15  C   LIG d   1      -3.937  93.021 117.606  0.00  0.00     0.109 C 
ATOM     16  O   LIG d   1      -2.886  91.845 119.427  0.00  0.00    -0.276 OA
ATOM     17  H   LIG d   1      -1.522  93.114 116.875  0.00  0.00     0.149 HD
ENDBRANCH   6  13
BRANCH   5  18
ATOM     18  N   LIG d   1      -0.365  93.370 120.445  0.00  0.00     0.381 N 
ATOM     19  H   LIG d   1       0.145  93.989 121.042  0.00  0.00    -0.090 HD
ATOM     20  H   LIG d   1      -0.511  92.506 120.937  0.00  0.00    -0.090 HD
ATOM     21  H   LIG d   1      -1.242  93.776 120.204  0.00  0.00    -0.090 HD
ENDBRANCH   5  18
BRANCH   3  22
ATOM     22  C   LIG d   1       3.938  92.168 118.720  0.00  0.00     0.382 C 
ATOM     23  O   LIG d   1       4.660  91.265 118.232  0.00  0.00    -0.241 OA
ATOM     24  O   LIG d   1       4.466  93.095 119.363  0.00  0.00    -0.241 OA
ENDBRANCH   3  22
TORSDOF 7
ENDMDL
MODEL 4
REMARK VINA RESULT:      -4.0      2.839      4.682
REMARK  7 active torsions:
REMARK  status: ('A' for Active; 'I' for Inactive)
REMARK    1  A    between atoms: C_2  and  C_3 
REMARK    2  A    between atoms: C_3  and  O_6 
REMARK    3  A    between atoms: C_3  and  C_4 
REMARK    4  A    between atoms: C_7  and  O_6 
REMARK    5  A    between atoms: C_9  and  C_10 
REMARK    6  A    between atoms: N_15  and  C_14 
REMARK    7  A    between atoms: N_20  and  C_19 
REMARK       I    between atoms: C_22  and  N_20 
ROOT
ATOM      1  C   LIG d   1      -0.785  93.760 118.136  0.00  0.00     0.161 C 
ATOM      2  C   LIG d   1      -0.200  92.779 117.318  0.00  0.00     0.016 C 
ATOM      3  C   LIG d   1       0.760  91.850 117.781  0.00  0.00     0.038 C 
ATOM      4  C   LIG d   1       1.090  91.741 119.140  0.00  0.00     0.028 C 
ATOM      5  C   LIG d   1       0.902  93.041 119.916  0.00  0.00    -0.047 C 
ATOM      6  C   LIG d   1      -0.519  93.584 119.646  0.00  0.00     0.091 C 
ENDROOT
BRANCH   1   7
ATOM      7  O   LIG d   1      -2.202  93.828 117.881  0.00  0.00    -0.368 OA
BRANCH   7   8
ATOM      8  C   LIG d   1      -3.027  92.887 118.612  0.00  0.00     0.119 C 
BRANCH   8   9
ATOM      9  C   LIG d   1      -3.590  91.877 117.594  0.00  0.00     0.028 C 
ATOM     10  C   LIG d   1      -4.856  92.397 116.891  0.00  0.00     0.006 C 
ENDBRANCH   8   9
BRANCH   8  11
ATOM     11  C   LIG d   1      -4.252  93.576 119.221  0.00  0.00     0.028 C 
ATOM     12  C   LIG d   1      -4.156  95.109 119.176  0.00  0.00     0.006 C 
ENDBRANCH   8  11
ENDBRANCH   7   8
ENDBRANCH   1   7
BRANCH   6  13
ATOM     13  N   LIG d   1      -0.757  94.898 120.300  0.00  0.00    -0.311 N 
ATOM     14  C   LIG d   1      -1.315  95.028 121.502  0.00  0.00     0.210 C 
ATOM     15  C   LIG d   1      -1.487  96.472 121.983  0.00  0.00     0.109 C 
ATOM     16  O   LIG d   1      -1.655  94.083 122.230  0.00  0.00    -0.276 OA
ATOM     17  H   LIG d   1      -0.482  95.716 119.793  0.00  0.00     0.149 HD
ENDBRANCH   6  13
BRANCH   5  18
ATOM     18  N   LIG d   1       1.150  92.749 121.340  0.00  0.00     0.381 N 
ATOM     19  H   LIG d   1       0.724  93.453 121.909  0.00  0.00    -0.090 HD
ATOM     20  H   LIG d   1       2.140  92.765 121.508  0.00  0.00    -0.090 HD
ATOM     21  H   LIG d   1       0.780  91.854 121.575  0.00  0.00    -0.090 HD
ENDBRANCH   5  18
BRANCH   3  22
ATOM     22  C   LIG d   1       1.430  91.044 116.874  0.00  0.00     0.382 C 
ATOM     23  O   LIG d   1       2.644  91.247 116.631  0.00  0.00    -0.241 OA
ATOM     24  O   LIG d   1       0.824  90.143 116.262  0.00  0.00    -0.241 OA
ENDBRANCH   3  22
TORSDOF 7
ENDMDL
MODEL 5
REMARK VINA RESULT:      -4.0      2.713      6.120
REMARK  7 active torsions:
REMARK  status: ('A' for Active; 'I' for Inactive)
REMARK    1  A    between atoms: C_2  and  C_3 
REMARK    2  A    between atoms: C_3  and  O_6 
REMARK    3  A    between atoms: C_3  and  C_4 
REMARK    4  A    between atoms: C_7  and  O_6 
REMARK    5  A    between atoms: C_9  and  C_10 
REMARK    6  A    between atoms: N_15  and  C_14 
REMARK    7  A    between atoms: N_20  and  C_19 
REMARK       I    between atoms: C_22  and  N_20 
ROOT
ATOM      1  C   LIG d   1       1.349  89.590 116.221  0.00  0.00     0.161 C 
ATOM      2  C   LIG d   1       0.214  90.324 116.601  0.00  0.00     0.016 C 
ATOM      3  C   LIG d   1      -0.644  89.939 117.657  0.00  0.00     0.038 C 
ATOM      4  C   LIG d   1      -0.338  88.867 118.508  0.00  0.00     0.028 C 
ATOM      5  C   LIG d   1       0.529  87.799 117.849  0.00  0.00    -0.047 C 
ATOM      6  C   LIG d   1       1.761  88.478 117.208  0.00  0.00     0.091 C 
ENDROOT
BRANCH   1   7
ATOM      7  O   LIG d   1       2.454  90.485 115.985  0.00  0.00    -0.368 OA
BRANCH   7   8
ATOM      8  C   LIG d   1       3.377  90.663 117.088  0.00  0.00     0.119 C 
BRANCH   8   9
ATOM      9  C   LIG d   1       3.230  92.114 117.585  0.00  0.00     0.028 C 
ATOM     10  C   LIG d   1       2.499  92.202 118.935  0.00  0.00     0.006 C 
ENDBRANCH   8   9
BRANCH   8  11
ATOM     11  C   LIG d   1       4.831  90.538 116.624  0.00  0.00     0.028 C 
ATOM     12  C   LIG d   1       5.841  90.891 117.727  0.00  0.00     0.006 C 
ENDBRANCH   8  11
ENDBRANCH   7   8
ENDBRANCH   1   7
BRANCH   6  13
ATOM     13  N   LIG d   1       2.618  87.515 116.469  0.00  0.00    -0.311 N 
ATOM     14  C   LIG d   1       3.691  86.930 117.001  0.00  0.00     0.210 C 
ATOM     15  C   LIG d   1       4.445  85.986 116.060  0.00  0.00     0.109 C 
ATOM     16  O   LIG d   1       4.070  87.079 118.172  0.00  0.00    -0.276 OA
ATOM     17  H   LIG d   1       2.365  87.312 115.522  0.00  0.00     0.149 HD
ENDBRANCH   6  13
BRANCH   5  18
ATOM     18  N   LIG d   1       0.885  86.812 118.885  0.00  0.00     0.381 N 
ATOM     19  H   LIG d   1       0.812  85.887 118.512  0.00  0.00    -0.090 HD
ATOM     20  H   LIG d   1       0.239  86.896 119.650  0.00  0.00    -0.090 HD
ATOM     21  H   LIG d   1       1.814  86.976 119.206  0.00  0.00    -0.090 HD
ENDBRANCH   5  18
BRANCH   3  22
ATOM     22  C   LIG d   1      -1.845  90.607 117.846  0.00  0.00     0.382 C 
ATOM     23  O   LIG d   1      -1.912  91.556 118.664  0.00  0.00    -0.241 OA
ATOM     24  O   LIG d   1      -2.871  90.245 117.241  0.00  0.00    -0.241 OA
ENDBRANCH   3  22
TORSDOF 7
ENDMDL
MODEL 6
REMARK VINA RESULT:      -3.9      1.919      4.675
REMARK  7 active torsions:
REMARK  status: ('A' for Active; 'I' for Inactive)
REMARK    1  A    between atoms: C_2  and  C_3 
REMARK    2  A    between atoms: C_3  and  O_6 
REMARK    3  A    between atoms: C_3  and  C_4 
REMARK    4  A    between atoms: C_7  and  O_6 
REMARK    5  A    between atoms: C_9  and  C_10 
REMARK    6  A    between atoms: N_15  and  C_14 
REMARK    7  A    between atoms: N_20  and  C_19 
REMARK       I    between atoms: C_22  and  N_20 
ROOT
ATOM      1  C   LIG d   1       1.390  90.658 117.507  0.00  0.00     0.161 C 
ATOM      2  C   LIG d   1       1.626  89.323 117.873  0.00  0.00     0.016 C 
ATOM      3  C   LIG d   1       0.620  88.329 117.885  0.00  0.00     0.038 C 
ATOM      4  C   LIG d   1      -0.667  88.572 117.383  0.00  0.00     0.028 C 
ATOM      5  C   LIG d   1      -1.088  90.035 117.476  0.00  0.00    -0.047 C 
ATOM      6  C   LIG d   1       0.017  90.916 116.851  0.00  0.00     0.091 C 
ENDROOT
BRANCH   1   7
ATOM      7  O   LIG d   1       2.450  91.125 116.650  0.00  0.00    -0.368 OA
BRANCH   7   8
ATOM      8  C   LIG d   1       3.741  90.491 116.829  0.00  0.00     0.119 C 
BRANCH   8   9
ATOM      9  C   LIG d   1       4.694  91.542 117.430  0.00  0.00     0.028 C 
ATOM     10  C   LIG d   1       4.913  91.341 118.939  0.00  0.00     0.006 C 
ENDBRANCH   8   9
BRANCH   8  11
ATOM     11  C   LIG d   1       4.362  90.102 115.484  0.00  0.00     0.028 C 
ATOM     12  C   LIG d   1       4.958  88.685 115.491  0.00  0.00     0.006 C 
ENDBRANCH   8  11
ENDBRANCH   7   8
ENDBRANCH   1   7
BRANCH   6  13
ATOM     13  N   LIG d   1      -0.276  92.367 116.976  0.00  0.00    -0.311 N 
ATOM     14  C   LIG d   1      -0.675  92.939 118.111  0.00  0.00     0.210 C 
ATOM     15  C   LIG d   1      -0.942  94.445 118.017  0.00  0.00     0.109 C 
ATOM     16  O   LIG d   1      -0.802  92.349 119.194  0.00  0.00    -0.276 OA
ATOM     17  H   LIG d   1      -0.169  92.927 116.153  0.00  0.00     0.149 HD
ENDBRANCH   6  13
BRANCH   5  18
ATOM     18  N   LIG d   1      -2.389  90.169 116.795  0.00  0.00     0.381 N 
ATOM     19  H   LIG d   1      -2.765  89.262 116.601  0.00  0.00    -0.090 HD
ATOM     20  H   LIG d   1      -2.251  90.646 115.921  0.00  0.00    -0.090 HD
ATOM     21  H   LIG d   1      -3.022  90.683 117.367  0.00  0.00    -0.090 HD
ENDBRANCH   5  18
BRANCH   3  22
ATOM     22  C   LIG d   1       0.887  87.087 118.440  0.00  0.00     0.382 C 
ATOM     23  O   LIG d   1      -0.048  86.396 118.910  0.00  0.00    -0.241 OA
ATOM     24  O   LIG d   1       2.058  86.668 118.517  0.00  0.00    -0.241 OA
ENDBRANCH   3  22
TORSDOF 7
ENDMDL
MODEL 7
REMARK VINA RESULT:      -3.9      2.215      3.389
REMARK  7 active torsions:
REMARK  status: ('A' for Active; 'I' for Inactive)
REMARK    1  A    between atoms: C_2  and  C_3 
REMARK    2  A    between atoms: C_3  and  O_6 
REMARK    3  A    between atoms: C_3  and  C_4 
REMARK    4  A    between atoms: C_7  and  O_6 
REMARK    5  A    between atoms: C_9  and  C_10 
REMARK    6  A    between atoms: N_15  and  C_14 
REMARK    7  A    between atoms: N_20  and  C_19 
REMARK       I    between atoms: C_22  and  N_20 
ROOT
ATOM      1  C   LIG d   1       0.447  92.508 117.809  0.00  0.00     0.161 C 
ATOM      2  C   LIG d   1       1.232  91.613 117.062  0.00  0.00     0.016 C 
ATOM      3  C   LIG d   1       2.276  90.840 117.620  0.00  0.00     0.038 C 
ATOM      4  C   LIG d   1       2.508  90.797 119.003  0.00  0.00     0.028 C 
ATOM      5  C   LIG d   1       2.072  92.064 119.730  0.00  0.00    -0.047 C 
ATOM      6  C   LIG d   1       0.613  92.391 119.339  0.00  0.00     0.091 C 
ENDROOT
BRANCH   1   7
ATOM      7  O   LIG d   1      -0.940  92.364 117.444  0.00  0.00    -0.368 OA
BRANCH   7   8
ATOM      8  C   LIG d   1      -1.750  91.547 118.324  0.00  0.00     0.119 C 
BRANCH   8   9
ATOM      9  C   LIG d   1      -2.138  90.275 117.546  0.00  0.00     0.028 C 
ATOM     10  C   LIG d   1      -1.389  89.029 118.048  0.00  0.00     0.006 C 
ENDBRANCH   8   9
BRANCH   8  11
ATOM     11  C   LIG d   1      -3.075  92.236 118.662  0.00  0.00     0.028 C 
ATOM     12  C   LIG d   1      -3.129  93.694 118.178  0.00  0.00     0.006 C 
ENDBRANCH   8  11
ENDBRANCH   7   8
ENDBRANCH   1   7
BRANCH   6  13
ATOM     13  N   LIG d   1       0.136  93.663 119.942  0.00  0.00    -0.311 N 
ATOM     14  C   LIG d   1      -0.553  93.722 121.080  0.00  0.00     0.210 C 
ATOM     15  C   LIG d   1      -0.965  95.132 121.514  0.00  0.00     0.109 C 
ATOM     16  O   LIG d   1      -0.834  92.743 121.788  0.00  0.00    -0.276 OA
ATOM     17  H   LIG d   1       0.347  94.509 119.449  0.00  0.00     0.149 HD
ENDBRANCH   6  13
BRANCH   5  18
ATOM     18  N   LIG d   1       2.244  91.829 121.177  0.00  0.00     0.381 N 
ATOM     19  H   LIG d   1       2.159  90.852 121.373  0.00  0.00    -0.090 HD
ATOM     20  H   LIG d   1       1.519  92.316 121.673  0.00  0.00    -0.090 HD
ATOM     21  H   LIG d   1       3.137  92.158 121.472  0.00  0.00    -0.090 HD
ENDBRANCH   5  18
BRANCH   3  22
ATOM     22  C   LIG d   1       3.126  90.130 116.786  0.00  0.00     0.382 C 
ATOM     23  O   LIG d   1       3.871  89.240 117.262  0.00  0.00    -0.241 OA
ATOM     24  O   LIG d   1       3.189  90.399 115.572  0.00  0.00    -0.241 OA
ENDBRANCH   3  22
TORSDOF 7
ENDMDL
MODEL 8
REMARK VINA RESULT:      -3.9      4.895      7.705
REMARK  7 active torsions:
REMARK  status: ('A' for Active; 'I' for Inactive)
REMARK    1  A    between atoms: C_2  and  C_3 
REMARK    2  A    between atoms: C_3  and  O_6 
REMARK    3  A    between atoms: C_3  and  C_4 
REMARK    4  A    between atoms: C_7  and  O_6 
REMARK    5  A    between atoms: C_9  and  C_10 
REMARK    6  A    between atoms: N_15  and  C_14 
REMARK    7  A    between atoms: N_20  and  C_19 
REMARK       I    between atoms: C_22  and  N_20 
ROOT
ATOM      1  C   LIG d   1      -4.232  93.967 118.704  0.00  0.00     0.161 C 
ATOM      2  C   LIG d   1      -5.004  93.321 117.724  0.00  0.00     0.016 C 
ATOM      3  C   LIG d   1      -4.608  92.123 117.087  0.00  0.00     0.038 C 
ATOM      4  C   LIG d   1      -3.476  91.404 117.497  0.00  0.00     0.028 C 
ATOM      5  C   LIG d   1      -2.401  92.279 118.134  0.00  0.00    -0.047 C 
ATOM      6  C   LIG d   1      -3.048  93.139 119.244  0.00  0.00     0.091 C 
ENDROOT
BRANCH   1   7
ATOM      7  O   LIG d   1      -5.079  94.396 119.789  0.00  0.00    -0.368 OA
BRANCH   7   8
ATOM      8  C   LIG d   1      -6.168  95.284 119.435  0.00  0.00     0.119 C 
BRANCH   8   9
ATOM      9  C   LIG d   1      -5.627  96.726 119.492  0.00  0.00     0.028 C 
ATOM     10  C   LIG d   1      -4.806  96.995 120.765  0.00  0.00     0.006 C 
ENDBRANCH   8   9
BRANCH   8  11
ATOM     11  C   LIG d   1      -7.291  95.231 120.474  0.00  0.00     0.028 C 
ATOM     12  C   LIG d   1      -8.539  96.019 120.045  0.00  0.00     0.006 C 
ENDBRANCH   8  11
ENDBRANCH   7   8
ENDBRANCH   1   7
BRANCH   6  13
ATOM     13  N   LIG d   1      -2.082  94.085 119.862  0.00  0.00    -0.311 N 
ATOM     14  C   LIG d   1      -1.829  94.124 121.169  0.00  0.00     0.210 C 
ATOM     15  C   LIG d   1      -0.815  95.188 121.600  0.00  0.00     0.109 C 
ATOM     16  O   LIG d   1      -2.324  93.357 122.009  0.00  0.00    -0.276 OA
ATOM     17  H   LIG d   1      -1.612  94.722 119.250  0.00  0.00     0.149 HD
ENDBRANCH   6  13
BRANCH   5  18
ATOM     18  N   LIG d   1      -1.341  91.385 118.639  0.00  0.00     0.381 N 
ATOM     19  H   LIG d   1      -0.510  91.506 118.095  0.00  0.00    -0.090 HD
ATOM     20  H   LIG d   1      -1.646  90.433 118.543  0.00  0.00    -0.090 HD
ATOM     21  H   LIG d   1      -1.153  91.587 119.596  0.00  0.00    -0.090 HD
ENDBRANCH   5  18
BRANCH   3  22
ATOM     22  C   LIG d   1      -5.328  91.654 115.998  0.00  0.00     0.382 C 
ATOM     23  O   LIG d   1      -6.170  92.395 115.437  0.00  0.00    -0.241 OA
ATOM     24  O   LIG d   1      -5.177  90.484 115.598  0.00  0.00    -0.241 OA
ENDBRANCH   3  22
TORSDOF 7
ENDMDL
MODEL 9
REMARK VINA RESULT:      -3.8      3.294      6.611
REMARK  7 active torsions:
REMARK  status: ('A' for Active; 'I' for Inactive)
REMARK    1  A    between atoms: C_2  and  C_3 
REMARK    2  A    between atoms: C_3  and  O_6 
REMARK    3  A    between atoms: C_3  and  C_4 
REMARK    4  A    between atoms: C_7  and  O_6 
REMARK    5  A    between atoms: C_9  and  C_10 
REMARK    6  A    between atoms: N_15  and  C_14 
REMARK    7  A    between atoms: N_20  and  C_19 
REMARK       I    between atoms: C_22  and  N_20 
ROOT
ATOM      1  C   LIG d   1      -1.293  94.295 118.894  0.00  0.00     0.161 C 
ATOM      2  C   LIG d   1      -2.232  95.254 119.309  0.00  0.00     0.016 C 
ATOM      3  C   LIG d   1      -3.621  95.136 119.072  0.00  0.00     0.038 C 
ATOM      4  C   LIG d   1      -4.185  93.970 118.533  0.00  0.00     0.028 C 
ATOM      5  C   LIG d   1      -3.226  93.190 117.641  0.00  0.00    -0.047 C 
ATOM      6  C   LIG d   1      -1.901  92.964 118.404  0.00  0.00     0.091 C 
ENDROOT
BRANCH   1   7
ATOM      7  O   LIG d   1      -0.343  94.053 119.951  0.00  0.00    -0.368 OA
BRANCH   7   8
ATOM      8  C   LIG d   1      -0.654  92.959 120.849  0.00  0.00     0.119 C 
BRANCH   8   9
ATOM      9  C   LIG d   1      -0.848  93.557 122.256  0.00  0.00     0.028 C 
ATOM     10  C   LIG d   1      -0.185  94.936 122.405  0.00  0.00     0.006 C 
ENDBRANCH   8   9
BRANCH   8  11
ATOM     11  C   LIG d   1       0.526  91.992 120.978  0.00  0.00     0.028 C 
ATOM     12  C   LIG d   1       1.755  92.440 120.171  0.00  0.00     0.006 C 
ENDBRANCH   8  11
ENDBRANCH   7   8
ENDBRANCH   1   7
BRANCH   6  13
ATOM     13  N   LIG d   1      -0.876  92.281 117.572  0.00  0.00    -0.311 N 
ATOM     14  C   LIG d   1      -0.661  90.967 117.606  0.00  0.00     0.210 C 
ATOM     15  C   LIG d   1       0.456  90.471 116.683  0.00  0.00     0.109 C 
ATOM     16  O   LIG d   1      -1.311  90.162 118.290  0.00  0.00    -0.276 OA
ATOM     17  H   LIG d   1      -0.325  92.856 116.965  0.00  0.00     0.149 HD
ENDBRANCH   6  13
BRANCH   5  18
ATOM     18  N   LIG d   1      -3.895  91.932 117.260  0.00  0.00     0.381 N 
ATOM     19  H   LIG d   1      -4.063  91.923 116.274  0.00  0.00    -0.090 HD
ATOM     20  H   LIG d   1      -4.781  91.879 117.731  0.00  0.00    -0.090 HD
ATOM     21  H   LIG d   1      -3.328  91.153 117.515  0.00  0.00    -0.090 HD
ENDBRANCH   5  18
BRANCH   3  22
ATOM     22  C   LIG d   1      -4.457  96.210 119.338  0.00  0.00     0.382 C 
ATOM     23  O   LIG d   1      -5.693  96.105 119.146  0.00  0.00    -0.241 OA
ATOM     24  O   LIG d   1      -3.987  97.296 119.726  0.00  0.00    -0.241 OA
ENDBRANCH   3  22
TORSDOF 7
ENDMDL
