MODEL 1
REMARK VINA RESULT:      -4.7      0.000      0.000
REMARK  7 active torsions:
REMARK  status: ('A' for Active; 'I' for Inactive)
REMARK    1  A    between atoms: C_2  and  C_3 
REMARK    2  A    between atoms: C_3  and  O_6 
REMARK    3  A    between atoms: C_3  and  C_4 
REMARK    4  A    between atoms: C_7  and  O_6 
REMARK    5  A    between atoms: C_9  and  C_10 
REMARK    6  A    between atoms: N_15  and  C_14 
REMARK    7  A    between atoms: N_20  and  C_19 
REMARK       I    between atoms: C_22  and  N_20 
ROOT
ATOM      1  C   LIG d   1      -2.815  92.388 118.571  0.00  0.00     0.161 C 
ATOM      2  C   LIG d   1      -3.494  91.871 117.455  0.00  0.00     0.016 C 
ATOM      3  C   LIG d   1      -4.879  92.053 117.233  0.00  0.00     0.038 C 
ATOM      4  C   LIG d   1      -5.654  92.899 118.041  0.00  0.00     0.028 C 
ATOM      5  C   LIG d   1      -5.120  93.034 119.463  0.00  0.00    -0.047 C 
ATOM      6  C   LIG d   1      -3.621  93.406 119.404  0.00  0.00     0.091 C 
ENDROOT
BRANCH   1   7
ATOM      7  O   LIG d   1      -1.560  92.962 118.156  0.00  0.00    -0.368 OA
BRANCH   7   8
ATOM      8  C   LIG d   1      -0.378  92.165 118.415  0.00  0.00     0.119 C 
BRANCH   8   9
ATOM      9  C   LIG d   1       0.410  92.859 119.543  0.00  0.00     0.028 C 
ATOM     10  C   LIG d   1       1.900  92.479 119.537  0.00  0.00     0.006 C 
ENDBRANCH   8   9
BRANCH   8  11
ATOM     11  C   LIG d   1       0.565  92.157 117.207  0.00  0.00     0.028 C 
ATOM     12  C   LIG d   1       0.563  90.815 116.459  0.00  0.00     0.006 C 
ENDBRANCH   8  11
ENDBRANCH   7   8
ENDBRANCH   1   7
BRANCH   6  13
ATOM     13  N   LIG d   1      -3.000  93.475 120.753  0.00  0.00    -0.311 N 
ATOM     14  C   LIG d   1      -2.495  94.593 121.271  0.00  0.00     0.210 C 
ATOM     15  C   LIG d   1      -1.884  94.440 122.667  0.00  0.00     0.109 C 
ATOM     16  O   LIG d   1      -2.524  95.704 120.720  0.00  0.00    -0.276 OA
ATOM     17  H   LIG d   1      -2.963  92.626 121.282  0.00  0.00     0.149 HD
ENDBRANCH   6  13
BRANCH   5  18
ATOM     18  N   LIG d   1      -5.941  94.048 120.153  0.00  0.00     0.381 N 
ATOM     19  H   LIG d   1      -6.574  93.599 120.784  0.00  0.00    -0.090 HD
ATOM     20  H   LIG d   1      -6.479  94.549 119.469  0.00  0.00    -0.090 HD
ATOM     21  H   LIG d   1      -5.354  94.679 120.652  0.00  0.00    -0.090 HD
ENDBRANCH   5  18
BRANCH   3  22
ATOM     22  C   LIG d   1      -5.510  91.353 116.217  0.00  0.00     0.382 C 
ATOM     23  O   LIG d   1      -6.581  91.787 115.728  0.00  0.00    -0.241 OA
ATOM     24  O   LIG d   1      -5.046  90.271 115.812  0.00  0.00    -0.241 OA
ENDBRANCH   3  22
TORSDOF 7
ENDMDL
MODEL 2
REMARK VINA RESULT:      -4.6      2.237      4.485
REMARK  7 active torsions:
REMARK  status: ('A' for Active; 'I' for Inactive)
REMARK    1  A    between atoms: C_2  and  C_3 
REMARK    2  A    between atoms: C_3  and  O_6 
REMARK    3  A    between atoms: C_3  and  C_4 
REMARK    4  A    between atoms: C_7  and  O_6 
REMARK    5  A    between atoms: C_9  and  C_10 
REMARK    6  A    between atoms: N_15  and  C_14 
REMARK    7  A    between atoms: N_20  and  C_19 
REMARK       I    between atoms: C_22  and  N_20 
ROOT
ATOM      1  C   LIG d   1      -4.122  93.241 119.363  0.00  0.00     0.161 C 
ATOM      2  C   LIG d   1      -5.204  92.851 118.555  0.00  0.00     0.016 C 
ATOM      3  C   LIG d   1      -5.065  92.032 117.411  0.00  0.00     0.038 C 
ATOM      4  C   LIG d   1      -3.847  91.419 117.081  0.00  0.00     0.028 C 
ATOM      5  C   LIG d   1      -2.627  92.189 117.578  0.00  0.00    -0.047 C 
ATOM      6  C   LIG d   1      -2.803  92.491 119.083  0.00  0.00     0.091 C 
ENDROOT
BRANCH   1   7
ATOM      7  O   LIG d   1      -4.483  93.119 120.753  0.00  0.00    -0.368 OA
BRANCH   7   8
ATOM      8  C   LIG d   1      -4.694  94.362 121.468  0.00  0.00     0.119 C 
BRANCH   8   9
ATOM      9  C   LIG d   1      -6.214  94.597 121.548  0.00  0.00     0.028 C 
ATOM     10  C   LIG d   1      -6.694  95.677 120.564  0.00  0.00     0.006 C 
ENDBRANCH   8   9
BRANCH   8  11
ATOM     11  C   LIG d   1      -4.139  95.556 120.685  0.00  0.00     0.028 C 
ATOM     12  C   LIG d   1      -3.012  96.286 121.431  0.00  0.00     0.006 C 
ENDBRANCH   8  11
ENDBRANCH   7   8
ENDBRANCH   1   7
BRANCH   6  13
ATOM     13  N   LIG d   1      -1.693  93.314 119.630  0.00  0.00    -0.311 N 
ATOM     14  C   LIG d   1      -0.999  92.981 120.716  0.00  0.00     0.210 C 
ATOM     15  C   LIG d   1       0.090  93.980 121.120  0.00  0.00     0.109 C 
ATOM     16  O   LIG d   1      -1.159  91.936 121.365  0.00  0.00    -0.276 OA
ATOM     17  H   LIG d   1      -1.475  94.164 119.146  0.00  0.00     0.149 HD
ENDBRANCH   6  13
BRANCH   5  18
ATOM     18  N   LIG d   1      -1.435  91.370 117.288  0.00  0.00     0.381 N 
ATOM     19  H   LIG d   1      -1.585  90.431 117.599  0.00  0.00    -0.090 HD
ATOM     20  H   LIG d   1      -0.651  91.748 117.790  0.00  0.00    -0.090 HD
ATOM     21  H   LIG d   1      -1.247  91.376 116.309  0.00  0.00    -0.090 HD
ENDBRANCH   5  18
BRANCH   3  22
ATOM     22  C   LIG d   1      -6.144  91.852 116.559  0.00  0.00     0.382 C 
ATOM     23  O   LIG d   1      -5.972  91.333 115.430  0.00  0.00    -0.241 OA
ATOM     24  O   LIG d   1      -7.280  92.243 116.888  0.00  0.00    -0.241 OA
ENDBRANCH   3  22
TORSDOF 7
ENDMDL
MODEL 3
REMARK VINA RESULT:      -4.6      2.549      5.428
REMARK  7 active torsions:
REMARK  status: ('A' for Active; 'I' for Inactive)
REMARK    1  A    between atoms: C_2  and  C_3 
REMARK    2  A    between atoms: C_3  and  O_6 
REMARK    3  A    between atoms: C_3  and  C_4 
REMARK    4  A    between atoms: C_7  and  O_6 
REMARK    5  A    between atoms: C_9  and  C_10 
REMARK    6  A    between atoms: N_15  and  C_14 
REMARK    7  A    between atoms: N_20  and  C_19 
REMARK       I    between atoms: C_22  and  N_20 
ROOT
ATOM      1  C   LIG d   1      -0.285  92.935 118.001  0.00  0.00     0.161 C 
ATOM      2  C   LIG d   1       0.230  92.131 116.971  0.00  0.00     0.016 C 
ATOM      3  C   LIG d   1       1.187  91.111 117.183  0.00  0.00     0.038 C 
ATOM      4  C   LIG d   1       1.584  90.724 118.472  0.00  0.00     0.028 C 
ATOM      5  C   LIG d   1       1.472  91.843 119.502  0.00  0.00    -0.047 C 
ATOM      6  C   LIG d   1       0.053  92.453 119.427  0.00  0.00     0.091 C 
ENDROOT
BRANCH   1   7
ATOM      7  O   LIG d   1      -1.711  93.076 117.845  0.00  0.00    -0.368 OA
BRANCH   7   8
ATOM      8  C   LIG d   1      -2.529  92.140 118.589  0.00  0.00     0.119 C 
BRANCH   8   9
ATOM      9  C   LIG d   1      -3.025  91.069 117.599  0.00  0.00     0.028 C 
ATOM     10  C   LIG d   1      -4.335  91.474 116.903  0.00  0.00     0.006 C 
ENDBRANCH   8   9
BRANCH   8  11
ATOM     11  C   LIG d   1      -3.796  92.813 119.126  0.00  0.00     0.028 C 
ATOM     12  C   LIG d   1      -3.547  94.250 119.613  0.00  0.00     0.006 C 
ENDBRANCH   8  11
ENDBRANCH   7   8
ENDBRANCH   1   7
BRANCH   6  13
ATOM     13  N   LIG d   1      -0.115  93.610 120.344  0.00  0.00    -0.311 N 
ATOM     14  C   LIG d   1      -0.612  93.504 121.575  0.00  0.00     0.210 C 
ATOM     15  C   LIG d   1      -0.719  94.824 122.346  0.00  0.00     0.109 C 
ATOM     16  O   LIG d   1      -0.945  92.438 122.114  0.00  0.00    -0.276 OA
ATOM     17  H   LIG d   1       0.160  94.509 119.999  0.00  0.00     0.149 HD
ENDBRANCH   6  13
BRANCH   5  18
ATOM     18  N   LIG d   1       1.784  91.265 120.823  0.00  0.00     0.381 N 
ATOM     19  H   LIG d   1       1.461  91.878 121.545  0.00  0.00    -0.090 HD
ATOM     20  H   LIG d   1       2.781  91.173 120.910  0.00  0.00    -0.090 HD
ATOM     21  H   LIG d   1       1.351  90.373 120.916  0.00  0.00    -0.090 HD
ENDBRANCH   5  18
BRANCH   3  22
ATOM     22  C   LIG d   1       1.787  90.495 116.096  0.00  0.00     0.382 C 
ATOM     23  O   LIG d   1       1.231  89.514 115.545  0.00  0.00    -0.241 OA
ATOM     24  O   LIG d   1       2.899  90.878 115.686  0.00  0.00    -0.241 OA
ENDBRANCH   3  22
TORSDOF 7
ENDMDL
MODEL 4
REMARK VINA RESULT:      -4.5      2.735      4.932
REMARK  7 active torsions:
REMARK  status: ('A' for Active; 'I' for Inactive)
REMARK    1  A    between atoms: C_2  and  C_3 
REMARK    2  A    between atoms: C_3  and  O_6 
REMARK    3  A    between atoms: C_3  and  C_4 
REMARK    4  A    between atoms: C_7  and  O_6 
REMARK    5  A    between atoms: C_9  and  C_10 
REMARK    6  A    between atoms: N_15  and  C_14 
REMARK    7  A    between atoms: N_20  and  C_19 
REMARK       I    between atoms: C_22  and  N_20 
ROOT
ATOM      1  C   LIG d   1      -0.397  92.840 119.792  0.00  0.00     0.161 C 
ATOM      2  C   LIG d   1       0.736  92.512 119.028  0.00  0.00     0.016 C 
ATOM      3  C   LIG d   1       0.668  92.058 117.691  0.00  0.00     0.038 C 
ATOM      4  C   LIG d   1      -0.536  92.047 116.972  0.00  0.00     0.028 C 
ATOM      5  C   LIG d   1      -1.768  91.889 117.857  0.00  0.00    -0.047 C 
ATOM      6  C   LIG d   1      -1.711  92.940 118.989  0.00  0.00     0.091 C 
ENDROOT
BRANCH   1   7
ATOM      7  O   LIG d   1      -0.160  94.062 120.518  0.00  0.00    -0.368 OA
BRANCH   7   8
ATOM      8  C   LIG d   1       0.052  93.926 121.944  0.00  0.00     0.119 C 
BRANCH   8   9
ATOM      9  C   LIG d   1      -1.046  94.740 122.656  0.00  0.00     0.028 C 
ATOM     10  C   LIG d   1      -1.371  96.053 121.923  0.00  0.00     0.006 C 
ENDBRANCH   8   9
BRANCH   8  11
ATOM     11  C   LIG d   1       1.375  94.566 122.375  0.00  0.00     0.028 C 
ATOM     12  C   LIG d   1       2.152  95.178 121.199  0.00  0.00     0.006 C 
ENDBRANCH   8  11
ENDBRANCH   7   8
ENDBRANCH   1   7
BRANCH   6  13
ATOM     13  N   LIG d   1      -2.836  92.800 119.950  0.00  0.00    -0.311 N 
ATOM     14  C   LIG d   1      -3.724  93.765 120.185  0.00  0.00     0.210 C 
ATOM     15  C   LIG d   1      -4.792  93.421 121.227  0.00  0.00     0.109 C 
ATOM     16  O   LIG d   1      -3.746  94.861 119.605  0.00  0.00    -0.276 OA
ATOM     17  H   LIG d   1      -2.912  91.930 120.441  0.00  0.00     0.149 HD
ENDBRANCH   6  13
BRANCH   5  18
ATOM     18  N   LIG d   1      -2.957  92.031 116.995  0.00  0.00     0.381 N 
ATOM     19  H   LIG d   1      -2.765  92.678 116.257  0.00  0.00    -0.090 HD
ATOM     20  H   LIG d   1      -3.715  92.396 117.545  0.00  0.00    -0.090 HD
ATOM     21  H   LIG d   1      -3.210  91.146 116.614  0.00  0.00    -0.090 HD
ENDBRANCH   5  18
BRANCH   3  22
ATOM     22  C   LIG d   1       1.810  91.573 117.071  0.00  0.00     0.382 C 
ATOM     23  O   LIG d   1       2.641  92.370 116.574  0.00  0.00    -0.241 OA
ATOM     24  O   LIG d   1       1.997  90.346 116.965  0.00  0.00    -0.241 OA
ENDBRANCH   3  22
TORSDOF 7
ENDMDL
MODEL 5
REMARK VINA RESULT:      -4.5      3.045      5.037
REMARK  7 active torsions:
REMARK  status: ('A' for Active; 'I' for Inactive)
REMARK    1  A    between atoms: C_2  and  C_3 
REMARK    2  A    between atoms: C_3  and  O_6 
REMARK    3  A    between atoms: C_3  and  C_4 
REMARK    4  A    between atoms: C_7  and  O_6 
REMARK    5  A    between atoms: C_9  and  C_10 
REMARK    6  A    between atoms: N_15  and  C_14 
REMARK    7  A    between atoms: N_20  and  C_19 
REMARK       I    between atoms: C_22  and  N_20 
ROOT
ATOM      1  C   LIG d   1       0.925  92.103 119.279  0.00  0.00     0.161 C 
ATOM      2  C   LIG d   1       1.780  91.623 118.272  0.00  0.00     0.016 C 
ATOM      3  C   LIG d   1       1.332  91.246 116.986  0.00  0.00     0.038 C 
ATOM      4  C   LIG d   1       0.011  91.466 116.566  0.00  0.00     0.028 C 
ATOM      5  C   LIG d   1      -0.995  91.477 117.712  0.00  0.00    -0.047 C 
ATOM      6  C   LIG d   1      -0.501  92.454 118.803  0.00  0.00     0.091 C 
ENDROOT
BRANCH   1   7
ATOM      7  O   LIG d   1       1.528  93.236 119.934  0.00  0.00    -0.368 OA
BRANCH   7   8
ATOM      8  C   LIG d   1       2.919  93.089 120.310  0.00  0.00     0.119 C 
BRANCH   8   9
ATOM      9  C   LIG d   1       2.977  93.002 121.847  0.00  0.00     0.028 C 
ATOM     10  C   LIG d   1       1.830  93.774 122.522  0.00  0.00     0.006 C 
ENDBRANCH   8   9
BRANCH   8  11
ATOM     11  C   LIG d   1       3.731  94.335 119.943  0.00  0.00     0.028 C 
ATOM     12  C   LIG d   1       4.483  94.186 118.612  0.00  0.00     0.006 C 
ENDBRANCH   8  11
ENDBRANCH   7   8
ENDBRANCH   1   7
BRANCH   6  13
ATOM     13  N   LIG d   1      -1.384  92.463 119.998  0.00  0.00    -0.311 N 
ATOM     14  C   LIG d   1      -2.415  93.294 120.142  0.00  0.00     0.210 C 
ATOM     15  C   LIG d   1      -3.183  93.150 121.459  0.00  0.00     0.109 C 
ATOM     16  O   LIG d   1      -2.785  94.116 119.290  0.00  0.00    -0.276 OA
ATOM     17  H   LIG d   1      -1.175  91.807 120.725  0.00  0.00     0.149 HD
ENDBRANCH   6  13
BRANCH   5  18
ATOM     18  N   LIG d   1      -2.306  91.853 117.150  0.00  0.00     0.381 N 
ATOM     19  H   LIG d   1      -2.176  92.354 116.294  0.00  0.00    -0.090 HD
ATOM     20  H   LIG d   1      -2.777  92.456 117.801  0.00  0.00    -0.090 HD
ATOM     21  H   LIG d   1      -2.853  91.036 116.986  0.00  0.00    -0.090 HD
ENDBRANCH   5  18
BRANCH   3  22
ATOM     22  C   LIG d   1       2.201  90.603 116.117  0.00  0.00     0.382 C 
ATOM     23  O   LIG d   1       3.377  91.020 115.985  0.00  0.00    -0.241 OA
ATOM     24  O   LIG d   1       1.811  89.640 115.430  0.00  0.00    -0.241 OA
ENDBRANCH   3  22
TORSDOF 7
ENDMDL
MODEL 6
REMARK VINA RESULT:      -4.2      2.916      4.701
REMARK  7 active torsions:
REMARK  status: ('A' for Active; 'I' for Inactive)
REMARK    1  A    between atoms: C_2  and  C_3 
REMARK    2  A    between atoms: C_3  and  O_6 
REMARK    3  A    between atoms: C_3  and  C_4 
REMARK    4  A    between atoms: C_7  and  O_6 
REMARK    5  A    between atoms: C_9  and  C_10 
REMARK    6  A    between atoms: N_15  and  C_14 
REMARK    7  A    between atoms: N_20  and  C_19 
REMARK       I    between atoms: C_22  and  N_20 
ROOT
ATOM      1  C   LIG d   1       0.352  92.505 119.569  0.00  0.00     0.161 C 
ATOM      2  C   LIG d   1       1.231  92.026 118.585  0.00  0.00     0.016 C 
ATOM      3  C   LIG d   1       0.825  91.700 117.270  0.00  0.00     0.038 C 
ATOM      4  C   LIG d   1      -0.468  91.977 116.804  0.00  0.00     0.028 C 
ATOM      5  C   LIG d   1      -1.520  91.991 117.908  0.00  0.00    -0.047 C 
ATOM      6  C   LIG d   1      -1.040  92.919 119.047  0.00  0.00     0.091 C 
ENDROOT
BRANCH   1   7
ATOM      7  O   LIG d   1       0.965  93.598 120.282  0.00  0.00    -0.368 OA
BRANCH   7   8
ATOM      8  C   LIG d   1       1.372  93.322 121.644  0.00  0.00     0.119 C 
BRANCH   8   9
ATOM      9  C   LIG d   1       2.912  93.333 121.678  0.00  0.00     0.028 C 
ATOM     10  C   LIG d   1       3.517  94.262 120.612  0.00  0.00     0.006 C 
ENDBRANCH   8   9
BRANCH   8  11
ATOM     11  C   LIG d   1       0.967  91.908 122.072  0.00  0.00     0.028 C 
ATOM     12  C   LIG d   1       2.169  91.040 122.475  0.00  0.00     0.006 C 
ENDBRANCH   8  11
ENDBRANCH   7   8
ENDBRANCH   1   7
BRANCH   6  13
ATOM     13  N   LIG d   1      -1.972  92.924 120.205  0.00  0.00    -0.311 N 
ATOM     14  C   LIG d   1      -2.956  93.809 120.350  0.00  0.00     0.210 C 
ATOM     15  C   LIG d   1      -3.788  93.649 121.626  0.00  0.00     0.109 C 
ATOM     16  O   LIG d   1      -3.241  94.692 119.526  0.00  0.00    -0.276 OA
ATOM     17  H   LIG d   1      -1.833  92.223 120.905  0.00  0.00     0.149 HD
ENDBRANCH   6  13
BRANCH   5  18
ATOM     18  N   LIG d   1      -2.794  92.427 117.305  0.00  0.00     0.381 N 
ATOM     19  H   LIG d   1      -2.852  92.099 116.361  0.00  0.00    -0.090 HD
ATOM     20  H   LIG d   1      -2.820  93.432 117.292  0.00  0.00    -0.090 HD
ATOM     21  H   LIG d   1      -3.560  92.075 117.834  0.00  0.00    -0.090 HD
ENDBRANCH   5  18
BRANCH   3  22
ATOM     22  C   LIG d   1       1.708  91.053 116.418  0.00  0.00     0.382 C 
ATOM     23  O   LIG d   1       2.869  91.502 116.260  0.00  0.00    -0.241 OA
ATOM     24  O   LIG d   1       1.344  90.052 115.773  0.00  0.00    -0.241 OA
ENDBRANCH   3  22
TORSDOF 7
ENDMDL
MODEL 7
REMARK VINA RESULT:      -4.1      3.421      5.899
REMARK  7 active torsions:
REMARK  status: ('A' for Active; 'I' for Inactive)
REMARK    1  A    between atoms: C_2  and  C_3 
REMARK    2  A    between atoms: C_3  and  O_6 
REMARK    3  A    between atoms: C_3  and  C_4 
REMARK    4  A    between atoms: C_7  and  O_6 
REMARK    5  A    between atoms: C_9  and  C_10 
REMARK    6  A    between atoms: N_15  and  C_14 
REMARK    7  A    between atoms: N_20  and  C_19 
REMARK       I    between atoms: C_22  and  N_20 
ROOT
ATOM      1  C   LIG d   1       1.491  91.096 117.424  0.00  0.00     0.161 C 
ATOM      2  C   LIG d   1       0.119  91.362 117.283  0.00  0.00     0.016 C 
ATOM      3  C   LIG d   1      -0.609  92.188 118.169  0.00  0.00     0.038 C 
ATOM      4  C   LIG d   1       0.022  92.931 119.178  0.00  0.00     0.028 C 
ATOM      5  C   LIG d   1       1.321  92.301 119.671  0.00  0.00    -0.047 C 
ATOM      6  C   LIG d   1       2.219  91.985 118.453  0.00  0.00     0.091 C 
ENDROOT
BRANCH   1   7
ATOM      7  O   LIG d   1       2.140  91.180 116.140  0.00  0.00    -0.368 OA
BRANCH   7   8
ATOM      8  C   LIG d   1       2.612  89.930 115.581  0.00  0.00     0.119 C 
BRANCH   8   9
ATOM      9  C   LIG d   1       2.301  88.819 116.603  0.00  0.00     0.028 C 
ATOM     10  C   LIG d   1       1.546  87.636 115.973  0.00  0.00     0.006 C 
ENDBRANCH   8   9
BRANCH   8  11
ATOM     11  C   LIG d   1       4.136  89.926 115.431  0.00  0.00     0.028 C 
ATOM     12  C   LIG d   1       4.832  88.989 116.431  0.00  0.00     0.006 C 
ENDBRANCH   8  11
ENDBRANCH   7   8
ENDBRANCH   1   7
BRANCH   6  13
ATOM     13  N   LIG d   1       3.474  91.290 118.841  0.00  0.00    -0.311 N 
ATOM     14  C   LIG d   1       4.634  91.919 119.023  0.00  0.00     0.210 C 
ATOM     15  C   LIG d   1       5.810  91.011 119.399  0.00  0.00     0.109 C 
ATOM     16  O   LIG d   1       4.795  93.146 118.939  0.00  0.00    -0.276 OA
ATOM     17  H   LIG d   1       3.428  90.297 118.960  0.00  0.00     0.149 HD
ENDBRANCH   6  13
BRANCH   5  18
ATOM     18  N   LIG d   1       1.942  93.245 120.619  0.00  0.00     0.381 N 
ATOM     19  H   LIG d   1       1.346  94.039 120.747  0.00  0.00    -0.090 HD
ATOM     20  H   LIG d   1       2.814  93.565 120.235  0.00  0.00    -0.090 HD
ATOM     21  H   LIG d   1       2.101  92.796 121.493  0.00  0.00    -0.090 HD
ENDBRANCH   5  18
BRANCH   3  22
ATOM     22  C   LIG d   1      -1.992  92.246 118.076  0.00  0.00     0.382 C 
ATOM     23  O   LIG d   1      -2.636  91.245 117.682  0.00  0.00    -0.241 OA
ATOM     24  O   LIG d   1      -2.598  93.302 118.337  0.00  0.00    -0.241 OA
ENDBRANCH   3  22
TORSDOF 7
ENDMDL
MODEL 8
REMARK VINA RESULT:      -3.9      3.169      5.333
REMARK  7 active torsions:
REMARK  status: ('A' for Active; 'I' for Inactive)
REMARK    1  A    between atoms: C_2  and  C_3 
REMARK    2  A    between atoms: C_3  and  O_6 
REMARK    3  A    between atoms: C_3  and  C_4 
REMARK    4  A    between atoms: C_7  and  O_6 
REMARK    5  A    between atoms: C_9  and  C_10 
REMARK    6  A    between atoms: N_15  and  C_14 
REMARK    7  A    between atoms: N_20  and  C_19 
REMARK       I    between atoms: C_22  and  N_20 
ROOT
ATOM      1  C   LIG d   1       0.367  92.643 119.834  0.00  0.00     0.161 C 
ATOM      2  C   LIG d   1      -0.966  93.056 119.999  0.00  0.00     0.016 C 
ATOM      3  C   LIG d   1      -1.968  92.858 119.021  0.00  0.00     0.038 C 
ATOM      4  C   LIG d   1      -1.738  92.094 117.868  0.00  0.00     0.028 C 
ATOM      5  C   LIG d   1      -0.279  92.090 117.424  0.00  0.00    -0.047 C 
ATOM      6  C   LIG d   1       0.611  91.710 118.629  0.00  0.00     0.091 C 
ENDROOT
BRANCH   1   7
ATOM      7  O   LIG d   1       0.842  92.028 121.048  0.00  0.00    -0.368 OA
BRANCH   7   8
ATOM      8  C   LIG d   1       1.881  92.744 121.761  0.00  0.00     0.119 C 
BRANCH   8   9
ATOM      9  C   LIG d   1       2.170  94.040 120.978  0.00  0.00     0.028 C 
ATOM     10  C   LIG d   1       3.644  94.152 120.554  0.00  0.00     0.006 C 
ENDBRANCH   8   9
BRANCH   8  11
ATOM     11  C   LIG d   1       3.199  91.964 121.756  0.00  0.00     0.028 C 
ATOM     12  C   LIG d   1       2.992  90.446 121.632  0.00  0.00     0.006 C 
ENDBRANCH   8  11
ENDBRANCH   7   8
ENDBRANCH   1   7
BRANCH   6  13
ATOM     13  N   LIG d   1       2.060  91.765 118.304  0.00  0.00    -0.311 N 
ATOM     14  C   LIG d   1       2.772  90.697 117.947  0.00  0.00     0.210 C 
ATOM     15  C   LIG d   1       4.254  90.971 117.674  0.00  0.00     0.109 C 
ATOM     16  O   LIG d   1       2.310  89.556 117.799  0.00  0.00    -0.276 OA
ATOM     17  H   LIG d   1       2.508  92.658 118.368  0.00  0.00     0.149 HD
ENDBRANCH   6  13
BRANCH   5  18
ATOM     18  N   LIG d   1      -0.159  91.148 116.296  0.00  0.00     0.381 N 
ATOM     19  H   LIG d   1       0.762  91.200 115.908  0.00  0.00    -0.090 HD
ATOM     20  H   LIG d   1      -0.817  91.409 115.583  0.00  0.00    -0.090 HD
ATOM     21  H   LIG d   1      -0.344  90.220 116.606  0.00  0.00    -0.090 HD
ENDBRANCH   5  18
BRANCH   3  22
ATOM     22  C   LIG d   1      -3.207  93.462 119.175  0.00  0.00     0.382 C 
ATOM     23  O   LIG d   1      -3.280  94.649 119.573  0.00  0.00    -0.241 OA
ATOM     24  O   LIG d   1      -4.253  92.820 118.964  0.00  0.00    -0.241 OA
ENDBRANCH   3  22
TORSDOF 7
ENDMDL
MODEL 9
REMARK VINA RESULT:      -3.9      4.356      6.807
REMARK  7 active torsions:
REMARK  status: ('A' for Active; 'I' for Inactive)
REMARK    1  A    between atoms: C_2  and  C_3 
REMARK    2  A    between atoms: C_3  and  O_6 
REMARK    3  A    between atoms: C_3  and  C_4 
REMARK    4  A    between atoms: C_7  and  O_6 
REMARK    5  A    between atoms: C_9  and  C_10 
REMARK    6  A    between atoms: N_15  and  C_14 
REMARK    7  A    between atoms: N_20  and  C_19 
REMARK       I    between atoms: C_22  and  N_20 
ROOT
ATOM      1  C   LIG d   1       2.420  91.832 118.494  0.00  0.00     0.161 C 
ATOM      2  C   LIG d   1       1.060  92.181 118.547  0.00  0.00     0.016 C 
ATOM      3  C   LIG d   1       0.093  91.682 117.644  0.00  0.00     0.038 C 
ATOM      4  C   LIG d   1       0.396  90.676 116.714  0.00  0.00     0.028 C 
ATOM      5  C   LIG d   1       1.861  90.663 116.292  0.00  0.00    -0.047 C 
ATOM      6  C   LIG d   1       2.748  90.650 117.558  0.00  0.00     0.091 C 
ENDROOT
BRANCH   1   7
ATOM      7  O   LIG d   1       2.908  91.567 119.825  0.00  0.00    -0.368 OA
BRANCH   7   8
ATOM      8  C   LIG d   1       3.836  92.538 120.367  0.00  0.00     0.119 C 
BRANCH   8   9
ATOM      9  C   LIG d   1       3.088  93.340 121.449  0.00  0.00     0.028 C 
ATOM     10  C   LIG d   1       2.648  94.728 120.952  0.00  0.00     0.006 C 
ENDBRANCH   8   9
BRANCH   8  11
ATOM     11  C   LIG d   1       4.248  93.567 119.310  0.00  0.00     0.028 C 
ATOM     12  C   LIG d   1       5.755  93.547 119.014  0.00  0.00     0.006 C 
ENDBRANCH   8  11
ENDBRANCH   7   8
ENDBRANCH   1   7
BRANCH   6  13
ATOM     13  N   LIG d   1       4.197  90.722 117.235  0.00  0.00    -0.311 N 
ATOM     14  C   LIG d   1       5.102  89.881 117.734  0.00  0.00     0.210 C 
ATOM     15  C   LIG d   1       6.544  90.143 117.288  0.00  0.00     0.109 C 
ATOM     16  O   LIG d   1       4.842  88.923 118.478  0.00  0.00    -0.276 OA
ATOM     17  H   LIG d   1       4.491  91.450 116.614  0.00  0.00     0.149 HD
ENDBRANCH   6  13
BRANCH   5  18
ATOM     18  N   LIG d   1       2.066  89.483 115.431  0.00  0.00     0.381 N 
ATOM     19  H   LIG d   1       2.897  89.000 115.710  0.00  0.00    -0.090 HD
ATOM     20  H   LIG d   1       2.184  89.790 114.481  0.00  0.00    -0.090 HD
ATOM     21  H   LIG d   1       1.281  88.873 115.495  0.00  0.00    -0.090 HD
ENDBRANCH   5  18
BRANCH   3  22
ATOM     22  C   LIG d   1      -1.185  92.220 117.639  0.00  0.00     0.382 C 
ATOM     23  O   LIG d   1      -2.170  91.498 117.924  0.00  0.00    -0.241 OA
ATOM     24  O   LIG d   1      -1.369  93.407 117.309  0.00  0.00    -0.241 OA
ENDBRANCH   3  22
TORSDOF 7
ENDMDL
