MODEL 1
REMARK VINA RESULT:      -4.9      0.000      0.000
REMARK  7 active torsions:
REMARK  status: ('A' for Active; 'I' for Inactive)
REMARK    1  A    between atoms: C_2  and  C_3 
REMARK    2  A    between atoms: C_3  and  O_6 
REMARK    3  A    between atoms: C_3  and  C_4 
REMARK    4  A    between atoms: C_7  and  O_6 
REMARK    5  A    between atoms: C_9  and  C_10 
REMARK    6  A    between atoms: N_15  and  C_14 
REMARK    7  A    between atoms: N_20  and  C_19 
REMARK       I    between atoms: C_22  and  N_20 
ROOT
ATOM      1  C   LIG d   1      -3.799  91.567 117.769  0.00  0.00     0.161 C 
ATOM      2  C   LIG d   1      -4.692  90.957 116.872  0.00  0.00     0.016 C 
ATOM      3  C   LIG d   1      -5.918  91.541 116.478  0.00  0.00     0.038 C 
ATOM      4  C   LIG d   1      -6.266  92.851 116.839  0.00  0.00     0.028 C 
ATOM      5  C   LIG d   1      -5.632  93.306 118.149  0.00  0.00    -0.047 C 
ATOM      6  C   LIG d   1      -4.110  93.044 118.087  0.00  0.00     0.091 C 
ENDROOT
BRANCH   1   7
ATOM      7  O   LIG d   1      -2.449  91.432 117.282  0.00  0.00    -0.368 OA
BRANCH   7   8
ATOM      8  C   LIG d   1      -1.526  90.730 118.150  0.00  0.00     0.119 C 
BRANCH   8   9
ATOM      9  C   LIG d   1      -0.103  90.985 117.615  0.00  0.00     0.028 C 
ATOM     10  C   LIG d   1       0.202  92.483 117.452  0.00  0.00     0.006 C 
ENDBRANCH   8   9
BRANCH   8  11
ATOM     11  C   LIG d   1      -1.725  89.213 118.065  0.00  0.00     0.028 C 
ATOM     12  C   LIG d   1      -1.837  88.549 119.447  0.00  0.00     0.006 C 
ENDBRANCH   8  11
ENDBRANCH   7   8
ENDBRANCH   1   7
BRANCH   6  13
ATOM     13  N   LIG d   1      -3.424  93.384 119.362  0.00  0.00    -0.311 N 
ATOM     14  C   LIG d   1      -2.457  94.295 119.454  0.00  0.00     0.210 C 
ATOM     15  C   LIG d   1      -1.871  94.477 120.857  0.00  0.00     0.109 C 
ATOM     16  O   LIG d   1      -2.052  94.994 118.512  0.00  0.00    -0.276 OA
ATOM     17  H   LIG d   1      -3.713  92.887 120.181  0.00  0.00     0.149 HD
ENDBRANCH   6  13
BRANCH   5  18
ATOM     18  N   LIG d   1      -5.966  94.731 118.334  0.00  0.00     0.381 N 
ATOM     19  H   LIG d   1      -6.912  94.896 118.053  0.00  0.00    -0.090 HD
ATOM     20  H   LIG d   1      -5.363  95.285 117.753  0.00  0.00    -0.090 HD
ATOM     21  H   LIG d   1      -5.847  94.988 119.289  0.00  0.00    -0.090 HD
ENDBRANCH   5  18
BRANCH   3  22
ATOM     22  C   LIG d   1      -6.829  90.796 115.745  0.00  0.00     0.382 C 
ATOM     23  O   LIG d   1      -7.938  91.293 115.432  0.00  0.00    -0.241 OA
ATOM     24  O   LIG d   1      -6.575  89.617 115.431  0.00  0.00    -0.241 OA
ENDBRANCH   3  22
TORSDOF 7
ENDMDL
MODEL 2
REMARK VINA RESULT:      -4.8      0.451      1.744
REMARK  7 active torsions:
REMARK  status: ('A' for Active; 'I' for Inactive)
REMARK    1  A    between atoms: C_2  and  C_3 
REMARK    2  A    between atoms: C_3  and  O_6 
REMARK    3  A    between atoms: C_3  and  C_4 
REMARK    4  A    between atoms: C_7  and  O_6 
REMARK    5  A    between atoms: C_9  and  C_10 
REMARK    6  A    between atoms: N_15  and  C_14 
REMARK    7  A    between atoms: N_20  and  C_19 
REMARK       I    between atoms: C_22  and  N_20 
ROOT
ATOM      1  C   LIG d   1      -3.879  91.694 117.796  0.00  0.00     0.161 C 
ATOM      2  C   LIG d   1      -4.744  91.059 116.889  0.00  0.00     0.016 C 
ATOM      3  C   LIG d   1      -5.990  91.599 116.495  0.00  0.00     0.038 C 
ATOM      4  C   LIG d   1      -6.391  92.890 116.869  0.00  0.00     0.028 C 
ATOM      5  C   LIG d   1      -5.780  93.356 118.186  0.00  0.00    -0.047 C 
ATOM      6  C   LIG d   1      -4.249  93.155 118.128  0.00  0.00     0.091 C 
ENDROOT
BRANCH   1   7
ATOM      7  O   LIG d   1      -2.523  91.617 117.314  0.00  0.00    -0.368 OA
BRANCH   7   8
ATOM      8  C   LIG d   1      -1.662  90.663 117.983  0.00  0.00     0.119 C 
BRANCH   8   9
ATOM      9  C   LIG d   1      -2.414  90.153 119.227  0.00  0.00     0.028 C 
ATOM     10  C   LIG d   1      -2.065  88.695 119.567  0.00  0.00     0.006 C 
ENDBRANCH   8   9
BRANCH   8  11
ATOM     11  C   LIG d   1      -0.396  91.338 118.521  0.00  0.00     0.028 C 
ATOM     12  C   LIG d   1       0.426  92.028 117.421  0.00  0.00     0.006 C 
ENDBRANCH   8  11
ENDBRANCH   7   8
ENDBRANCH   1   7
BRANCH   6  13
ATOM     13  N   LIG d   1      -3.582  93.507 119.409  0.00  0.00    -0.311 N 
ATOM     14  C   LIG d   1      -2.472  94.239 119.480  0.00  0.00     0.210 C 
ATOM     15  C   LIG d   1      -1.938  94.469 120.898  0.00  0.00     0.109 C 
ATOM     16  O   LIG d   1      -1.896  94.747 118.506  0.00  0.00    -0.276 OA
ATOM     17  H   LIG d   1      -4.000  93.162 120.251  0.00  0.00     0.149 HD
ENDBRANCH   6  13
BRANCH   5  18
ATOM     18  N   LIG d   1      -6.171  94.764 118.385  0.00  0.00     0.381 N 
ATOM     19  H   LIG d   1      -7.091  94.915 118.021  0.00  0.00    -0.090 HD
ATOM     20  H   LIG d   1      -5.532  95.353 117.881  0.00  0.00    -0.090 HD
ATOM     21  H   LIG d   1      -6.148  94.991 119.355  0.00  0.00    -0.090 HD
ENDBRANCH   5  18
BRANCH   3  22
ATOM     22  C   LIG d   1      -6.869  90.826 115.750  0.00  0.00     0.382 C 
ATOM     23  O   LIG d   1      -7.991  91.286 115.430  0.00  0.00    -0.241 OA
ATOM     24  O   LIG d   1      -6.570  89.660 115.432  0.00  0.00    -0.241 OA
ENDBRANCH   3  22
TORSDOF 7
ENDMDL
MODEL 3
REMARK VINA RESULT:      -4.6      2.234      3.253
REMARK  7 active torsions:
REMARK  status: ('A' for Active; 'I' for Inactive)
REMARK    1  A    between atoms: C_2  and  C_3 
REMARK    2  A    between atoms: C_3  and  O_6 
REMARK    3  A    between atoms: C_3  and  C_4 
REMARK    4  A    between atoms: C_7  and  O_6 
REMARK    5  A    between atoms: C_9  and  C_10 
REMARK    6  A    between atoms: N_15  and  C_14 
REMARK    7  A    between atoms: N_20  and  C_19 
REMARK       I    between atoms: C_22  and  N_20 
ROOT
ATOM      1  C   LIG d   1      -2.635  90.347 118.879  0.00  0.00     0.161 C 
ATOM      2  C   LIG d   1      -4.025  90.352 118.674  0.00  0.00     0.016 C 
ATOM      3  C   LIG d   1      -4.717  91.423 118.062  0.00  0.00     0.038 C 
ATOM      4  C   LIG d   1      -4.041  92.502 117.472  0.00  0.00     0.028 C 
ATOM      5  C   LIG d   1      -2.680  92.780 118.101  0.00  0.00    -0.047 C 
ATOM      6  C   LIG d   1      -1.868  91.466 118.143  0.00  0.00     0.091 C 
ENDROOT
BRANCH   1   7
ATOM      7  O   LIG d   1      -2.095  89.057 118.531  0.00  0.00    -0.368 OA
BRANCH   7   8
ATOM      8  C   LIG d   1      -1.278  88.414 119.540  0.00  0.00     0.119 C 
BRANCH   8   9
ATOM      9  C   LIG d   1      -0.156  87.651 118.811  0.00  0.00     0.028 C 
ATOM     10  C   LIG d   1       0.157  88.247 117.428  0.00  0.00     0.006 C 
ENDBRANCH   8   9
BRANCH   8  11
ATOM     11  C   LIG d   1      -2.069  87.345 120.299  0.00  0.00     0.028 C 
ATOM     12  C   LIG d   1      -1.521  85.926 120.074  0.00  0.00     0.006 C 
ENDBRANCH   8  11
ENDBRANCH   7   8
ENDBRANCH   1   7
BRANCH   6  13
ATOM     13  N   LIG d   1      -0.555  91.632 118.820  0.00  0.00    -0.311 N 
ATOM     14  C   LIG d   1       0.577  91.893 118.169  0.00  0.00     0.210 C 
ATOM     15  C   LIG d   1       1.821  92.006 119.056  0.00  0.00     0.109 C 
ATOM     16  O   LIG d   1       0.664  92.074 116.945  0.00  0.00    -0.276 OA
ATOM     17  H   LIG d   1      -0.540  91.532 119.816  0.00  0.00     0.149 HD
ENDBRANCH   6  13
BRANCH   5  18
ATOM     18  N   LIG d   1      -2.029  93.837 117.304  0.00  0.00     0.381 N 
ATOM     19  H   LIG d   1      -1.131  93.522 116.993  0.00  0.00    -0.090 HD
ATOM     20  H   LIG d   1      -1.896  94.646 117.884  0.00  0.00    -0.090 HD
ATOM     21  H   LIG d   1      -2.597  94.071 116.519  0.00  0.00    -0.090 HD
ENDBRANCH   5  18
BRANCH   3  22
ATOM     22  C   LIG d   1      -6.103  91.439 118.070  0.00  0.00     0.382 C 
ATOM     23  O   LIG d   1      -6.743  90.809 117.193  0.00  0.00    -0.241 OA
ATOM     24  O   LIG d   1      -6.722  92.111 118.916  0.00  0.00    -0.241 OA
ENDBRANCH   3  22
TORSDOF 7
ENDMDL
MODEL 4
REMARK VINA RESULT:      -4.6      2.243      4.266
REMARK  7 active torsions:
REMARK  status: ('A' for Active; 'I' for Inactive)
REMARK    1  A    between atoms: C_2  and  C_3 
REMARK    2  A    between atoms: C_3  and  O_6 
REMARK    3  A    between atoms: C_3  and  C_4 
REMARK    4  A    between atoms: C_7  and  O_6 
REMARK    5  A    between atoms: C_9  and  C_10 
REMARK    6  A    between atoms: N_15  and  C_14 
REMARK    7  A    between atoms: N_20  and  C_19 
REMARK       I    between atoms: C_22  and  N_20 
ROOT
ATOM      1  C   LIG d   1      -5.151  93.637 118.342  0.00  0.00     0.161 C 
ATOM      2  C   LIG d   1      -6.195  92.948 117.703  0.00  0.00     0.016 C 
ATOM      3  C   LIG d   1      -6.003  91.759 116.962  0.00  0.00     0.038 C 
ATOM      4  C   LIG d   1      -4.769  91.092 116.936  0.00  0.00     0.028 C 
ATOM      5  C   LIG d   1      -3.576  92.018 117.147  0.00  0.00    -0.047 C 
ATOM      6  C   LIG d   1      -3.817  92.865 118.417  0.00  0.00     0.091 C 
ENDROOT
BRANCH   1   7
ATOM      7  O   LIG d   1      -5.569  94.045 119.659  0.00  0.00    -0.368 OA
BRANCH   7   8
ATOM      8  C   LIG d   1      -5.223  93.149 120.744  0.00  0.00     0.119 C 
BRANCH   8   9
ATOM      9  C   LIG d   1      -6.534  92.533 121.271  0.00  0.00     0.028 C 
ATOM     10  C   LIG d   1      -7.491  93.592 121.844  0.00  0.00     0.006 C 
ENDBRANCH   8   9
BRANCH   8  11
ATOM     11  C   LIG d   1      -4.628  93.913 121.930  0.00  0.00     0.028 C 
ATOM     12  C   LIG d   1      -4.225  95.352 121.570  0.00  0.00     0.006 C 
ENDBRANCH   8  11
ENDBRANCH   7   8
ENDBRANCH   1   7
BRANCH   6  13
ATOM     13  N   LIG d   1      -2.736  93.858 118.650  0.00  0.00    -0.311 N 
ATOM     14  C   LIG d   1      -1.694  93.633 119.449  0.00  0.00     0.210 C 
ATOM     15  C   LIG d   1      -0.704  94.797 119.564  0.00  0.00     0.109 C 
ATOM     16  O   LIG d   1      -1.479  92.569 120.048  0.00  0.00    -0.276 OA
ATOM     17  H   LIG d   1      -2.814  94.738 118.178  0.00  0.00     0.149 HD
ENDBRANCH   6  13
BRANCH   5  18
ATOM     18  N   LIG d   1      -2.368  91.176 117.235  0.00  0.00     0.381 N 
ATOM     19  H   LIG d   1      -1.666  91.524 116.613  0.00  0.00    -0.090 HD
ATOM     20  H   LIG d   1      -2.603  90.240 116.953  0.00  0.00    -0.090 HD
ATOM     21  H   LIG d   1      -2.022  91.172 118.169  0.00  0.00    -0.090 HD
ENDBRANCH   5  18
BRANCH   3  22
ATOM     22  C   LIG d   1      -7.045  91.246 116.204  0.00  0.00     0.382 C 
ATOM     23  O   LIG d   1      -7.319  90.023 116.261  0.00  0.00    -0.241 OA
ATOM     24  O   LIG d   1      -7.685  91.983 115.430  0.00  0.00    -0.241 OA
ENDBRANCH   3  22
TORSDOF 7
ENDMDL
MODEL 5
REMARK VINA RESULT:      -4.6      2.633      5.920
REMARK  7 active torsions:
REMARK  status: ('A' for Active; 'I' for Inactive)
REMARK    1  A    between atoms: C_2  and  C_3 
REMARK    2  A    between atoms: C_3  and  O_6 
REMARK    3  A    between atoms: C_3  and  C_4 
REMARK    4  A    between atoms: C_7  and  O_6 
REMARK    5  A    between atoms: C_9  and  C_10 
REMARK    6  A    between atoms: N_15  and  C_14 
REMARK    7  A    between atoms: N_20  and  C_19 
REMARK       I    between atoms: C_22  and  N_20 
ROOT
ATOM      1  C   LIG d   1      -0.368  91.557 118.071  0.00  0.00     0.161 C 
ATOM      2  C   LIG d   1       0.973  91.866 118.357  0.00  0.00     0.016 C 
ATOM      3  C   LIG d   1       1.476  93.187 118.391  0.00  0.00     0.038 C 
ATOM      4  C   LIG d   1       0.634  94.305 118.291  0.00  0.00     0.028 C 
ATOM      5  C   LIG d   1      -0.641  94.033 117.500  0.00  0.00    -0.047 C 
ATOM      6  C   LIG d   1      -1.324  92.768 118.068  0.00  0.00     0.091 C 
ENDROOT
BRANCH   1   7
ATOM      7  O   LIG d   1      -0.841  90.547 118.983  0.00  0.00    -0.368 OA
BRANCH   7   8
ATOM      8  C   LIG d   1      -1.516  89.413 118.384  0.00  0.00     0.119 C 
BRANCH   8   9
ATOM      9  C   LIG d   1      -2.820  89.181 119.172  0.00  0.00     0.028 C 
ATOM     10  C   LIG d   1      -3.048  90.248 120.256  0.00  0.00     0.006 C 
ENDBRANCH   8   9
BRANCH   8  11
ATOM     11  C   LIG d   1      -0.703  88.126 118.558  0.00  0.00     0.028 C 
ATOM     12  C   LIG d   1       0.356  87.938 117.460  0.00  0.00     0.006 C 
ENDBRANCH   8  11
ENDBRANCH   7   8
ENDBRANCH   1   7
BRANCH   6  13
ATOM     13  N   LIG d   1      -2.535  92.383 117.297  0.00  0.00    -0.311 N 
ATOM     14  C   LIG d   1      -3.766  92.777 117.620  0.00  0.00     0.210 C 
ATOM     15  C   LIG d   1      -4.875  92.250 116.704  0.00  0.00     0.109 C 
ATOM     16  O   LIG d   1      -4.041  93.539 118.559  0.00  0.00    -0.276 OA
ATOM     17  H   LIG d   1      -2.400  91.791 116.501  0.00  0.00     0.149 HD
ENDBRANCH   6  13
BRANCH   5  18
ATOM     18  N   LIG d   1      -1.487  95.238 117.591  0.00  0.00     0.381 N 
ATOM     19  H   LIG d   1      -0.912  96.056 117.604  0.00  0.00    -0.090 HD
ATOM     20  H   LIG d   1      -2.009  95.204 118.449  0.00  0.00    -0.090 HD
ATOM     21  H   LIG d   1      -2.112  95.275 116.815  0.00  0.00    -0.090 HD
ENDBRANCH   5  18
BRANCH   3  22
ATOM     22  C   LIG d   1       2.843  93.399 118.488  0.00  0.00     0.382 C 
ATOM     23  O   LIG d   1       3.364  93.627 119.607  0.00  0.00    -0.241 OA
ATOM     24  O   LIG d   1       3.555  93.409 117.466  0.00  0.00    -0.241 OA
ENDBRANCH   3  22
TORSDOF 7
ENDMDL
MODEL 6
REMARK VINA RESULT:      -4.5      2.133      5.439
REMARK  7 active torsions:
REMARK  status: ('A' for Active; 'I' for Inactive)
REMARK    1  A    between atoms: C_2  and  C_3 
REMARK    2  A    between atoms: C_3  and  O_6 
REMARK    3  A    between atoms: C_3  and  C_4 
REMARK    4  A    between atoms: C_7  and  O_6 
REMARK    5  A    between atoms: C_9  and  C_10 
REMARK    6  A    between atoms: N_15  and  C_14 
REMARK    7  A    between atoms: N_20  and  C_19 
REMARK       I    between atoms: C_22  and  N_20 
ROOT
ATOM      1  C   LIG d   1      -1.678  90.625 117.658  0.00  0.00     0.161 C 
ATOM      2  C   LIG d   1      -0.595  91.118 118.405  0.00  0.00     0.016 C 
ATOM      3  C   LIG d   1      -0.609  92.369 119.064  0.00  0.00     0.038 C 
ATOM      4  C   LIG d   1      -1.771  93.150 119.147  0.00  0.00     0.028 C 
ATOM      5  C   LIG d   1      -2.734  92.929 117.985  0.00  0.00    -0.047 C 
ATOM      6  C   LIG d   1      -2.993  91.413 117.830  0.00  0.00     0.091 C 
ENDROOT
BRANCH   1   7
ATOM      7  O   LIG d   1      -1.885  89.231 117.961  0.00  0.00    -0.368 OA
BRANCH   7   8
ATOM      8  C   LIG d   1      -1.376  88.773 119.237  0.00  0.00     0.119 C 
BRANCH   8   9
ATOM      9  C   LIG d   1      -0.709  87.403 119.005  0.00  0.00     0.028 C 
ATOM     10  C   LIG d   1      -1.339  86.291 119.861  0.00  0.00     0.006 C 
ENDBRANCH   8   9
BRANCH   8  11
ATOM     11  C   LIG d   1      -2.513  88.507 120.228  0.00  0.00     0.028 C 
ATOM     12  C   LIG d   1      -2.758  89.686 121.184  0.00  0.00     0.006 C 
ENDBRANCH   8  11
ENDBRANCH   7   8
ENDBRANCH   1   7
BRANCH   6  13
ATOM     13  N   LIG d   1      -3.859  91.102 116.663  0.00  0.00    -0.311 N 
ATOM     14  C   LIG d   1      -5.176  90.924 116.754  0.00  0.00     0.210 C 
ATOM     15  C   LIG d   1      -5.876  90.593 115.432  0.00  0.00     0.109 C 
ATOM     16  O   LIG d   1      -5.835  91.040 117.798  0.00  0.00    -0.276 OA
ATOM     17  H   LIG d   1      -3.411  91.021 115.771  0.00  0.00     0.149 HD
ENDBRANCH   6  13
BRANCH   5  18
ATOM     18  N   LIG d   1      -3.959  93.699 118.269  0.00  0.00     0.381 N 
ATOM     19  H   LIG d   1      -4.610  93.591 117.517  0.00  0.00    -0.090 HD
ATOM     20  H   LIG d   1      -3.721  94.672 118.343  0.00  0.00    -0.090 HD
ATOM     21  H   LIG d   1      -4.370  93.385 119.121  0.00  0.00    -0.090 HD
ENDBRANCH   5  18
BRANCH   3  22
ATOM     22  C   LIG d   1       0.562  92.868 119.615  0.00  0.00     0.382 C 
ATOM     23  O   LIG d   1       1.336  92.104 120.240  0.00  0.00    -0.241 OA
ATOM     24  O   LIG d   1       0.831  94.082 119.533  0.00  0.00    -0.241 OA
ENDBRANCH   3  22
TORSDOF 7
ENDMDL
MODEL 7
REMARK VINA RESULT:      -4.4      2.491      4.428
REMARK  7 active torsions:
REMARK  status: ('A' for Active; 'I' for Inactive)
REMARK    1  A    between atoms: C_2  and  C_3 
REMARK    2  A    between atoms: C_3  and  O_6 
REMARK    3  A    between atoms: C_3  and  C_4 
REMARK    4  A    between atoms: C_7  and  O_6 
REMARK    5  A    between atoms: C_9  and  C_10 
REMARK    6  A    between atoms: N_15  and  C_14 
REMARK    7  A    between atoms: N_20  and  C_19 
REMARK       I    between atoms: C_22  and  N_20 
ROOT
ATOM      1  C   LIG d   1      -2.591  92.828 117.569  0.00  0.00     0.161 C 
ATOM      2  C   LIG d   1      -3.947  92.980 117.901  0.00  0.00     0.016 C 
ATOM      3  C   LIG d   1      -4.747  91.930 118.408  0.00  0.00     0.038 C 
ATOM      4  C   LIG d   1      -4.201  90.687 118.762  0.00  0.00     0.028 C 
ATOM      5  C   LIG d   1      -2.946  90.330 117.973  0.00  0.00    -0.047 C 
ATOM      6  C   LIG d   1      -1.950  91.510 118.052  0.00  0.00     0.091 C 
ENDROOT
BRANCH   1   7
ATOM      7  O   LIG d   1      -1.839  93.958 118.055  0.00  0.00    -0.368 OA
BRANCH   7   8
ATOM      8  C   LIG d   1      -1.584  93.988 119.481  0.00  0.00     0.119 C 
BRANCH   8   9
ATOM      9  C   LIG d   1      -2.216  95.279 120.036  0.00  0.00     0.028 C 
ATOM     10  C   LIG d   1      -2.210  96.425 119.010  0.00  0.00     0.006 C 
ENDBRANCH   8   9
BRANCH   8  11
ATOM     11  C   LIG d   1      -0.087  94.110 119.777  0.00  0.00     0.028 C 
ATOM     12  C   LIG d   1       0.756  94.324 118.510  0.00  0.00     0.006 C 
ENDBRANCH   8  11
ENDBRANCH   7   8
ENDBRANCH   1   7
BRANCH   6  13
ATOM     13  N   LIG d   1      -0.730  91.278 117.237  0.00  0.00    -0.311 N 
ATOM     14  C   LIG d   1       0.399  90.773 117.734  0.00  0.00     0.210 C 
ATOM     15  C   LIG d   1       1.544  90.634 116.726  0.00  0.00     0.109 C 
ATOM     16  O   LIG d   1       0.550  90.398 118.906  0.00  0.00    -0.276 OA
ATOM     17  H   LIG d   1      -0.774  91.525 116.268  0.00  0.00     0.149 HD
ENDBRANCH   6  13
BRANCH   5  18
ATOM     18  N   LIG d   1      -2.406  89.079 118.537  0.00  0.00     0.381 N 
ATOM     19  H   LIG d   1      -2.368  89.145 119.534  0.00  0.00    -0.090 HD
ATOM     20  H   LIG d   1      -1.471  88.944 118.194  0.00  0.00    -0.090 HD
ATOM     21  H   LIG d   1      -2.979  88.309 118.270  0.00  0.00    -0.090 HD
ENDBRANCH   5  18
BRANCH   3  22
ATOM     22  C   LIG d   1      -6.117  92.106 118.529  0.00  0.00     0.382 C 
ATOM     23  O   LIG d   1      -6.901  91.210 118.134  0.00  0.00    -0.241 OA
ATOM     24  O   LIG d   1      -6.579  93.168 118.987  0.00  0.00    -0.241 OA
ENDBRANCH   3  22
TORSDOF 7
ENDMDL
MODEL 8
REMARK VINA RESULT:      -4.4      3.007      6.291
REMARK  7 active torsions:
REMARK  status: ('A' for Active; 'I' for Inactive)
REMARK    1  A    between atoms: C_2  and  C_3 
REMARK    2  A    between atoms: C_3  and  O_6 
REMARK    3  A    between atoms: C_3  and  C_4 
REMARK    4  A    between atoms: C_7  and  O_6 
REMARK    5  A    between atoms: C_9  and  C_10 
REMARK    6  A    between atoms: N_15  and  C_14 
REMARK    7  A    between atoms: N_20  and  C_19 
REMARK       I    between atoms: C_22  and  N_20 
ROOT
ATOM      1  C   LIG d   1       0.239  91.668 116.990  0.00  0.00     0.161 C 
ATOM      2  C   LIG d   1       1.642  91.648 117.046  0.00  0.00     0.016 C 
ATOM      3  C   LIG d   1       2.405  92.593 117.770  0.00  0.00     0.038 C 
ATOM      4  C   LIG d   1       1.805  93.539 118.616  0.00  0.00     0.028 C 
ATOM      5  C   LIG d   1       0.389  93.916 118.195  0.00  0.00    -0.047 C 
ATOM      6  C   LIG d   1      -0.436  92.624 117.995  0.00  0.00     0.091 C 
ENDROOT
BRANCH   1   7
ATOM      7  O   LIG d   1      -0.275  90.330 117.148  0.00  0.00    -0.368 OA
BRANCH   7   8
ATOM      8  C   LIG d   1       0.485  89.454 118.016  0.00  0.00     0.119 C 
BRANCH   8   9
ATOM      9  C   LIG d   1       0.625  88.098 117.297  0.00  0.00     0.028 C 
ATOM     10  C   LIG d   1       2.000  87.925 116.631  0.00  0.00     0.006 C 
ENDBRANCH   8   9
BRANCH   8  11
ATOM     11  C   LIG d   1      -0.278  89.151 119.309  0.00  0.00     0.028 C 
ATOM     12  C   LIG d   1      -0.956  87.772 119.291  0.00  0.00     0.006 C 
ENDBRANCH   8  11
ENDBRANCH   7   8
ENDBRANCH   1   7
BRANCH   6  13
ATOM     13  N   LIG d   1      -1.810  92.899 117.501  0.00  0.00    -0.311 N 
ATOM     14  C   LIG d   1      -2.895  92.289 117.975  0.00  0.00     0.210 C 
ATOM     15  C   LIG d   1      -4.212  92.706 117.312  0.00  0.00     0.109 C 
ATOM     16  O   LIG d   1      -2.896  91.466 118.902  0.00  0.00    -0.276 OA
ATOM     17  H   LIG d   1      -1.905  93.577 116.771  0.00  0.00     0.149 HD
ENDBRANCH   6  13
BRANCH   5  18
ATOM     18  N   LIG d   1      -0.165  94.800 119.237  0.00  0.00     0.381 N 
ATOM     19  H   LIG d   1      -0.362  94.270 120.062  0.00  0.00    -0.090 HD
ATOM     20  H   LIG d   1      -1.026  95.196 118.903  0.00  0.00    -0.090 HD
ATOM     21  H   LIG d   1       0.484  95.527 119.448  0.00  0.00    -0.090 HD
ENDBRANCH   5  18
BRANCH   3  22
ATOM     22  C   LIG d   1       3.783  92.624 117.621  0.00  0.00     0.382 C 
ATOM     23  O   LIG d   1       4.368  93.715 117.416  0.00  0.00    -0.241 OA
ATOM     24  O   LIG d   1       4.445  91.569 117.643  0.00  0.00    -0.241 OA
ENDBRANCH   3  22
TORSDOF 7
ENDMDL
MODEL 9
REMARK VINA RESULT:      -4.3      2.467      5.140
REMARK  7 active torsions:
REMARK  status: ('A' for Active; 'I' for Inactive)
REMARK    1  A    between atoms: C_2  and  C_3 
REMARK    2  A    between atoms: C_3  and  O_6 
REMARK    3  A    between atoms: C_3  and  C_4 
REMARK    4  A    between atoms: C_7  and  O_6 
REMARK    5  A    between atoms: C_9  and  C_10 
REMARK    6  A    between atoms: N_15  and  C_14 
REMARK    7  A    between atoms: N_20  and  C_19 
REMARK       I    between atoms: C_22  and  N_20 
ROOT
ATOM      1  C   LIG d   1      -2.821  93.066 117.971  0.00  0.00     0.161 C 
ATOM      2  C   LIG d   1      -2.169  91.871 117.624  0.00  0.00     0.016 C 
ATOM      3  C   LIG d   1      -0.770  91.692 117.717  0.00  0.00     0.038 C 
ATOM      4  C   LIG d   1       0.062  92.652 118.312  0.00  0.00     0.028 C 
ATOM      5  C   LIG d   1      -0.484  94.072 118.213  0.00  0.00    -0.047 C 
ATOM      6  C   LIG d   1      -1.942  94.085 118.726  0.00  0.00     0.091 C 
ENDROOT
BRANCH   1   7
ATOM      7  O   LIG d   1      -4.011  92.771 118.730  0.00  0.00    -0.368 OA
BRANCH   7   8
ATOM      8  C   LIG d   1      -5.271  93.044 118.070  0.00  0.00     0.119 C 
BRANCH   8   9
ATOM      9  C   LIG d   1      -6.111  93.918 119.021  0.00  0.00     0.028 C 
ATOM     10  C   LIG d   1      -6.016  93.453 120.484  0.00  0.00     0.006 C 
ENDBRANCH   8   9
BRANCH   8  11
ATOM     11  C   LIG d   1      -6.085  91.763 117.871  0.00  0.00     0.028 C 
ATOM     12  C   LIG d   1      -5.850  91.115 116.497  0.00  0.00     0.006 C 
ENDBRANCH   8  11
ENDBRANCH   7   8
ENDBRANCH   1   7
BRANCH   6  13
ATOM     13  N   LIG d   1      -2.581  95.420 118.585  0.00  0.00    -0.311 N 
ATOM     14  C   LIG d   1      -3.163  96.064 119.595  0.00  0.00     0.210 C 
ATOM     15  C   LIG d   1      -3.778  97.419 119.230  0.00  0.00     0.109 C 
ATOM     16  O   LIG d   1      -3.201  95.657 120.766  0.00  0.00    -0.276 OA
ATOM     17  H   LIG d   1      -2.568  95.838 117.676  0.00  0.00     0.149 HD
ENDBRANCH   6  13
BRANCH   5  18
ATOM     18  N   LIG d   1       0.411  94.949 118.990  0.00  0.00     0.381 N 
ATOM     19  H   LIG d   1       1.209  94.431 119.298  0.00  0.00    -0.090 HD
ATOM     20  H   LIG d   1      -0.082  95.280 119.801  0.00  0.00    -0.090 HD
ATOM     21  H   LIG d   1       0.702  95.721 118.432  0.00  0.00    -0.090 HD
ENDBRANCH   5  18
BRANCH   3  22
ATOM     22  C   LIG d   1      -0.185  90.557 117.176  0.00  0.00     0.382 C 
ATOM     23  O   LIG d   1      -0.690  89.428 117.389  0.00  0.00    -0.241 OA
ATOM     24  O   LIG d   1       0.867  90.643 116.514  0.00  0.00    -0.241 OA
ENDBRANCH   3  22
TORSDOF 7
ENDMDL
