MODEL 1
REMARK VINA RESULT:      -5.1      0.000      0.000
REMARK  7 active torsions:
REMARK  status: ('A' for Active; 'I' for Inactive)
REMARK    1  A    between atoms: C_2  and  C_3 
REMARK    2  A    between atoms: C_3  and  O_6 
REMARK    3  A    between atoms: C_3  and  C_4 
REMARK    4  A    between atoms: C_7  and  O_6 
REMARK    5  A    between atoms: C_9  and  C_10 
REMARK    6  A    between atoms: N_15  and  C_14 
REMARK    7  A    between atoms: N_20  and  C_19 
REMARK       I    between atoms: C_22  and  N_20 
ROOT
ATOM      1  C   LIG d   1      -5.307  91.621 118.970  0.00  0.00     0.161 C 
ATOM      2  C   LIG d   1      -4.288  90.900 118.325  0.00  0.00     0.016 C 
ATOM      3  C   LIG d   1      -4.376  90.460 116.984  0.00  0.00     0.038 C 
ATOM      4  C   LIG d   1      -5.432  90.844 116.145  0.00  0.00     0.028 C 
ATOM      5  C   LIG d   1      -6.724  91.147 116.897  0.00  0.00    -0.047 C 
ATOM      6  C   LIG d   1      -6.419  92.145 118.036  0.00  0.00     0.091 C 
ENDROOT
BRANCH   1   7
ATOM      7  O   LIG d   1      -4.734  92.707 119.725  0.00  0.00    -0.368 OA
BRANCH   7   8
ATOM      8  C   LIG d   1      -3.299  92.660 119.921  0.00  0.00     0.119 C 
BRANCH   8   9
ATOM      9  C   LIG d   1      -3.042  92.573 121.438  0.00  0.00     0.028 C 
ATOM     10  C   LIG d   1      -3.155  91.136 121.971  0.00  0.00     0.006 C 
ENDBRANCH   8   9
BRANCH   8  11
ATOM     11  C   LIG d   1      -2.632  93.963 119.470  0.00  0.00     0.028 C 
ATOM     12  C   LIG d   1      -1.306  93.728 118.730  0.00  0.00     0.006 C 
ENDBRANCH   8  11
ENDBRANCH   7   8
ENDBRANCH   1   7
BRANCH   6  13
ATOM     13  N   LIG d   1      -7.612  92.431 118.875  0.00  0.00    -0.311 N 
ATOM     14  C   LIG d   1      -8.460  93.428 118.628  0.00  0.00     0.210 C 
ATOM     15  C   LIG d   1      -9.613  93.559 119.628  0.00  0.00     0.109 C 
ATOM     16  O   LIG d   1      -8.384  94.198 117.658  0.00  0.00    -0.276 OA
ATOM     17  H   LIG d   1      -7.767  91.836 119.665  0.00  0.00     0.149 HD
ENDBRANCH   6  13
BRANCH   5  18
ATOM     18  N   LIG d   1      -7.698  91.666 115.918  0.00  0.00     0.381 N 
ATOM     19  H   LIG d   1      -7.366  92.529 115.536  0.00  0.00    -0.090 HD
ATOM     20  H   LIG d   1      -8.568  91.842 116.388  0.00  0.00    -0.090 HD
ATOM     21  H   LIG d   1      -7.834  91.002 115.188  0.00  0.00    -0.090 HD
ENDBRANCH   5  18
BRANCH   3  22
ATOM     22  C   LIG d   1      -3.418  89.592 116.482  0.00  0.00     0.382 C 
ATOM     23  O   LIG d   1      -3.750  88.689 115.677  0.00  0.00    -0.241 OA
ATOM     24  O   LIG d   1      -2.233  89.673 116.859  0.00  0.00    -0.241 OA
ENDBRANCH   3  22
TORSDOF 7
ENDMDL
MODEL 2
REMARK VINA RESULT:      -5.1      2.664      5.029
REMARK  7 active torsions:
REMARK  status: ('A' for Active; 'I' for Inactive)
REMARK    1  A    between atoms: C_2  and  C_3 
REMARK    2  A    between atoms: C_3  and  O_6 
REMARK    3  A    between atoms: C_3  and  C_4 
REMARK    4  A    between atoms: C_7  and  O_6 
REMARK    5  A    between atoms: C_9  and  C_10 
REMARK    6  A    between atoms: N_15  and  C_14 
REMARK    7  A    between atoms: N_20  and  C_19 
REMARK       I    between atoms: C_22  and  N_20 
ROOT
ATOM      1  C   LIG d   1      -5.281  92.200 119.081  0.00  0.00     0.161 C 
ATOM      2  C   LIG d   1      -6.284  91.790 118.187  0.00  0.00     0.016 C 
ATOM      3  C   LIG d   1      -6.037  90.962 117.067  0.00  0.00     0.038 C 
ATOM      4  C   LIG d   1      -4.788  90.361 116.851  0.00  0.00     0.028 C 
ATOM      5  C   LIG d   1      -3.625  91.151 117.442  0.00  0.00    -0.047 C 
ATOM      6  C   LIG d   1      -3.934  91.464 118.924  0.00  0.00     0.091 C 
ENDROOT
BRANCH   1   7
ATOM      7  O   LIG d   1      -5.759  92.086 120.436  0.00  0.00    -0.368 OA
BRANCH   7   8
ATOM      8  C   LIG d   1      -7.065  92.654 120.701  0.00  0.00     0.119 C 
BRANCH   8   9
ATOM      9  C   LIG d   1      -6.876  94.168 120.921  0.00  0.00     0.028 C 
ATOM     10  C   LIG d   1      -7.569  95.009 119.836  0.00  0.00     0.006 C 
ENDBRANCH   8   9
BRANCH   8  11
ATOM     11  C   LIG d   1      -7.648  92.124 122.015  0.00  0.00     0.028 C 
ATOM     12  C   LIG d   1      -9.117  92.525 122.220  0.00  0.00     0.006 C 
ENDBRANCH   8  11
ENDBRANCH   7   8
ENDBRANCH   1   7
BRANCH   6  13
ATOM     13  N   LIG d   1      -2.885  92.307 119.556  0.00  0.00    -0.311 N 
ATOM     14  C   LIG d   1      -2.226  91.953 120.658  0.00  0.00     0.210 C 
ATOM     15  C   LIG d   1      -1.200  92.976 121.154  0.00  0.00     0.109 C 
ATOM     16  O   LIG d   1      -2.371  90.874 121.253  0.00  0.00    -0.276 OA
ATOM     17  H   LIG d   1      -2.682  93.185 119.120  0.00  0.00     0.149 HD
ENDBRANCH   6  13
BRANCH   5  18
ATOM     18  N   LIG d   1      -2.403  90.345 117.264  0.00  0.00     0.381 N 
ATOM     19  H   LIG d   1      -2.429  89.881 116.378  0.00  0.00    -0.090 HD
ATOM     20  H   LIG d   1      -2.367  89.646 117.985  0.00  0.00    -0.090 HD
ATOM     21  H   LIG d   1      -1.598  90.929 117.318  0.00  0.00    -0.090 HD
ENDBRANCH   5  18
BRANCH   3  22
ATOM     22  C   LIG d   1      -7.037  90.761 116.128  0.00  0.00     0.382 C 
ATOM     23  O   LIG d   1      -7.388  89.595 115.826  0.00  0.00    -0.241 OA
ATOM     24  O   LIG d   1      -7.561  91.729 115.546  0.00  0.00    -0.241 OA
ENDBRANCH   3  22
TORSDOF 7
ENDMDL
MODEL 3
REMARK VINA RESULT:      -5.1      2.707      4.604
REMARK  7 active torsions:
REMARK  status: ('A' for Active; 'I' for Inactive)
REMARK    1  A    between atoms: C_2  and  C_3 
REMARK    2  A    between atoms: C_3  and  O_6 
REMARK    3  A    between atoms: C_3  and  C_4 
REMARK    4  A    between atoms: C_7  and  O_6 
REMARK    5  A    between atoms: C_9  and  C_10 
REMARK    6  A    between atoms: N_15  and  C_14 
REMARK    7  A    between atoms: N_20  and  C_19 
REMARK       I    between atoms: C_22  and  N_20 
ROOT
ATOM      1  C   LIG d   1      -5.167  92.162 119.014  0.00  0.00     0.161 C 
ATOM      2  C   LIG d   1      -6.208  91.745 118.168  0.00  0.00     0.016 C 
ATOM      3  C   LIG d   1      -6.010  90.912 117.042  0.00  0.00     0.038 C 
ATOM      4  C   LIG d   1      -4.770  90.314 116.772  0.00  0.00     0.028 C 
ATOM      5  C   LIG d   1      -3.584  91.109 117.307  0.00  0.00    -0.047 C 
ATOM      6  C   LIG d   1      -3.826  91.429 118.800  0.00  0.00     0.091 C 
ENDROOT
BRANCH   1   7
ATOM      7  O   LIG d   1      -5.582  92.054 120.390  0.00  0.00    -0.368 OA
BRANCH   7   8
ATOM      8  C   LIG d   1      -5.846  93.302 121.076  0.00  0.00     0.119 C 
BRANCH   8   9
ATOM      9  C   LIG d   1      -7.373  93.427 121.239  0.00  0.00     0.028 C 
ATOM     10  C   LIG d   1      -7.987  92.218 121.965  0.00  0.00     0.006 C 
ENDBRANCH   8   9
BRANCH   8  11
ATOM     11  C   LIG d   1      -5.429  94.505 120.224  0.00  0.00     0.028 C 
ATOM     12  C   LIG d   1      -6.610  95.423 119.871  0.00  0.00     0.006 C 
ENDBRANCH   8  11
ENDBRANCH   7   8
ENDBRANCH   1   7
BRANCH   6  13
ATOM     13  N   LIG d   1      -2.752  92.277 119.379  0.00  0.00    -0.311 N 
ATOM     14  C   LIG d   1      -2.131  91.994 120.523  0.00  0.00     0.210 C 
ATOM     15  C   LIG d   1      -1.068  93.011 120.951  0.00  0.00     0.109 C 
ATOM     16  O   LIG d   1      -2.337  90.980 121.207  0.00  0.00    -0.276 OA
ATOM     17  H   LIG d   1      -2.500  93.103 118.873  0.00  0.00     0.149 HD
ENDBRANCH   6  13
BRANCH   5  18
ATOM     18  N   LIG d   1      -2.369  90.305 117.077  0.00  0.00     0.381 N 
ATOM     19  H   LIG d   1      -2.491  89.389 117.460  0.00  0.00    -0.090 HD
ATOM     20  H   LIG d   1      -1.596  90.742 117.548  0.00  0.00    -0.090 HD
ATOM     21  H   LIG d   1      -2.180  90.242 116.101  0.00  0.00    -0.090 HD
ENDBRANCH   5  18
BRANCH   3  22
ATOM     22  C   LIG d   1      -7.050  90.704 116.150  0.00  0.00     0.382 C 
ATOM     23  O   LIG d   1      -7.590  91.681 115.577  0.00  0.00    -0.241 OA
ATOM     24  O   LIG d   1      -7.486  89.555 115.945  0.00  0.00    -0.241 OA
ENDBRANCH   3  22
TORSDOF 7
ENDMDL
MODEL 4
REMARK VINA RESULT:      -5.0      1.988      2.461
REMARK  7 active torsions:
REMARK  status: ('A' for Active; 'I' for Inactive)
REMARK    1  A    between atoms: C_2  and  C_3 
REMARK    2  A    between atoms: C_3  and  O_6 
REMARK    3  A    between atoms: C_3  and  C_4 
REMARK    4  A    between atoms: C_7  and  O_6 
REMARK    5  A    between atoms: C_9  and  C_10 
REMARK    6  A    between atoms: N_15  and  C_14 
REMARK    7  A    between atoms: N_20  and  C_19 
REMARK       I    between atoms: C_22  and  N_20 
ROOT
ATOM      1  C   LIG d   1      -6.096  92.332 119.429  0.00  0.00     0.161 C 
ATOM      2  C   LIG d   1      -5.906  91.375 118.419  0.00  0.00     0.016 C 
ATOM      3  C   LIG d   1      -6.623  91.377 117.200  0.00  0.00     0.038 C 
ATOM      4  C   LIG d   1      -7.475  92.433 116.844  0.00  0.00     0.028 C 
ATOM      5  C   LIG d   1      -8.078  93.156 118.044  0.00  0.00    -0.047 C 
ATOM      6  C   LIG d   1      -6.941  93.554 119.012  0.00  0.00     0.091 C 
ENDROOT
BRANCH   1   7
ATOM      7  O   LIG d   1      -4.819  92.759 119.944  0.00  0.00    -0.368 OA
BRANCH   7   8
ATOM      8  C   LIG d   1      -3.710  91.851 119.731  0.00  0.00     0.119 C 
BRANCH   8   9
ATOM      9  C   LIG d   1      -3.332  91.251 121.099  0.00  0.00     0.028 C 
ATOM     10  C   LIG d   1      -1.823  91.337 121.381  0.00  0.00     0.006 C 
ENDBRANCH   8   9
BRANCH   8  11
ATOM     11  C   LIG d   1      -2.460  92.599 119.257  0.00  0.00     0.028 C 
ATOM     12  C   LIG d   1      -2.074  92.256 117.809  0.00  0.00     0.006 C 
ENDBRANCH   8  11
ENDBRANCH   7   8
ENDBRANCH   1   7
BRANCH   6  13
ATOM     13  N   LIG d   1      -7.451  94.193 120.254  0.00  0.00    -0.311 N 
ATOM     14  C   LIG d   1      -7.568  95.511 120.405  0.00  0.00     0.210 C 
ATOM     15  C   LIG d   1      -8.097  95.960 121.771  0.00  0.00     0.109 C 
ATOM     16  O   LIG d   1      -7.314  96.349 119.527  0.00  0.00    -0.276 OA
ATOM     17  H   LIG d   1      -7.710  93.585 121.006  0.00  0.00     0.149 HD
ENDBRANCH   6  13
BRANCH   5  18
ATOM     18  N   LIG d   1      -8.833  94.315 117.532  0.00  0.00     0.381 N 
ATOM     19  H   LIG d   1      -8.453  95.161 117.908  0.00  0.00    -0.090 HD
ATOM     20  H   LIG d   1      -9.789  94.239 117.832  0.00  0.00    -0.090 HD
ATOM     21  H   LIG d   1      -8.790  94.338 116.537  0.00  0.00    -0.090 HD
ENDBRANCH   5  18
BRANCH   3  22
ATOM     22  C   LIG d   1      -6.520  90.295 116.340  0.00  0.00     0.382 C 
ATOM     23  O   LIG d   1      -7.539  89.622 116.054  0.00  0.00    -0.241 OA
ATOM     24  O   LIG d   1      -5.412  89.956 115.882  0.00  0.00    -0.241 OA
ENDBRANCH   3  22
TORSDOF 7
ENDMDL
MODEL 5
REMARK VINA RESULT:      -4.8      2.219      4.166
REMARK  7 active torsions:
REMARK  status: ('A' for Active; 'I' for Inactive)
REMARK    1  A    between atoms: C_2  and  C_3 
REMARK    2  A    between atoms: C_3  and  O_6 
REMARK    3  A    between atoms: C_3  and  C_4 
REMARK    4  A    between atoms: C_7  and  O_6 
REMARK    5  A    between atoms: C_9  and  C_10 
REMARK    6  A    between atoms: N_15  and  C_14 
REMARK    7  A    between atoms: N_20  and  C_19 
REMARK       I    between atoms: C_22  and  N_20 
ROOT
ATOM      1  C   LIG d   1      -3.937  91.330 118.550  0.00  0.00     0.161 C 
ATOM      2  C   LIG d   1      -4.725  90.951 117.451  0.00  0.00     0.016 C 
ATOM      3  C   LIG d   1      -6.098  91.269 117.330  0.00  0.00     0.038 C 
ATOM      4  C   LIG d   1      -6.743  92.123 118.238  0.00  0.00     0.028 C 
ATOM      5  C   LIG d   1      -6.118  92.113 119.628  0.00  0.00    -0.047 C 
ATOM      6  C   LIG d   1      -4.597  92.356 119.496  0.00  0.00     0.091 C 
ENDROOT
BRANCH   1   7
ATOM      7  O   LIG d   1      -2.661  91.818 118.092  0.00  0.00    -0.368 OA
BRANCH   7   8
ATOM      8  C   LIG d   1      -1.498  91.082 118.543  0.00  0.00     0.119 C 
BRANCH   8   9
ATOM      9  C   LIG d   1      -0.378  92.106 118.814  0.00  0.00     0.028 C 
ATOM     10  C   LIG d   1      -0.834  93.553 118.564  0.00  0.00     0.006 C 
ENDBRANCH   8   9
BRANCH   8  11
ATOM     11  C   LIG d   1      -0.954  90.169 117.439  0.00  0.00     0.028 C 
ATOM     12  C   LIG d   1       0.564  90.308 117.245  0.00  0.00     0.006 C 
ENDBRANCH   8  11
ENDBRANCH   7   8
ENDBRANCH   1   7
BRANCH   6  13
ATOM     13  N   LIG d   1      -3.895  92.278 120.803  0.00  0.00    -0.311 N 
ATOM     14  C   LIG d   1      -3.293  93.320 121.375  0.00  0.00     0.210 C 
ATOM     15  C   LIG d   1      -2.611  93.019 122.714  0.00  0.00     0.109 C 
ATOM     16  O   LIG d   1      -3.287  94.473 120.917  0.00  0.00    -0.276 OA
ATOM     17  H   LIG d   1      -3.878  91.388 121.260  0.00  0.00     0.149 HD
ENDBRANCH   6  13
BRANCH   5  18
ATOM     18  N   LIG d   1      -6.800  93.146 120.431  0.00  0.00     0.381 N 
ATOM     19  H   LIG d   1      -7.769  92.916 120.526  0.00  0.00    -0.090 HD
ATOM     20  H   LIG d   1      -6.730  94.028 119.953  0.00  0.00    -0.090 HD
ATOM     21  H   LIG d   1      -6.377  93.213 121.330  0.00  0.00    -0.090 HD
ENDBRANCH   5  18
BRANCH   3  22
ATOM     22  C   LIG d   1      -6.849  90.698 116.315  0.00  0.00     0.382 C 
ATOM     23  O   LIG d   1      -6.528  89.577 115.851  0.00  0.00    -0.241 OA
ATOM     24  O   LIG d   1      -7.818  91.309 115.825  0.00  0.00    -0.241 OA
ENDBRANCH   3  22
TORSDOF 7
ENDMDL
MODEL 6
REMARK VINA RESULT:      -4.6      2.842      5.451
REMARK  7 active torsions:
REMARK  status: ('A' for Active; 'I' for Inactive)
REMARK    1  A    between atoms: C_2  and  C_3 
REMARK    2  A    between atoms: C_3  and  O_6 
REMARK    3  A    between atoms: C_3  and  C_4 
REMARK    4  A    between atoms: C_7  and  O_6 
REMARK    5  A    between atoms: C_9  and  C_10 
REMARK    6  A    between atoms: N_15  and  C_14 
REMARK    7  A    between atoms: N_20  and  C_19 
REMARK       I    between atoms: C_22  and  N_20 
ROOT
ATOM      1  C   LIG d   1      -5.810  92.920 120.513  0.00  0.00     0.161 C 
ATOM      2  C   LIG d   1      -7.054  92.814 119.869  0.00  0.00     0.016 C 
ATOM      3  C   LIG d   1      -7.703  93.905 119.246  0.00  0.00     0.038 C 
ATOM      4  C   LIG d   1      -7.077  95.151 119.092  0.00  0.00     0.028 C 
ATOM      5  C   LIG d   1      -6.035  95.442 120.167  0.00  0.00    -0.047 C 
ATOM      6  C   LIG d   1      -5.061  94.245 120.258  0.00  0.00     0.091 C 
ENDROOT
BRANCH   1   7
ATOM      7  O   LIG d   1      -4.978  91.798 120.156  0.00  0.00    -0.368 OA
BRANCH   7   8
ATOM      8  C   LIG d   1      -4.272  91.903 118.895  0.00  0.00     0.119 C 
BRANCH   8   9
ATOM      9  C   LIG d   1      -4.637  90.665 118.055  0.00  0.00     0.028 C 
ATOM     10  C   LIG d   1      -5.666  90.983 116.956  0.00  0.00     0.006 C 
ENDBRANCH   8   9
BRANCH   8  11
ATOM     11  C   LIG d   1      -2.756  91.823 119.098  0.00  0.00     0.028 C 
ATOM     12  C   LIG d   1      -1.969  92.561 118.004  0.00  0.00     0.006 C 
ENDBRANCH   8  11
ENDBRANCH   7   8
ENDBRANCH   1   7
BRANCH   6  13
ATOM     13  N   LIG d   1      -4.059  94.411 121.344  0.00  0.00    -0.311 N 
ATOM     14  C   LIG d   1      -2.854  94.944 121.154  0.00  0.00     0.210 C 
ATOM     15  C   LIG d   1      -1.969  95.003 122.403  0.00  0.00     0.109 C 
ATOM     16  O   LIG d   1      -2.445  95.403 120.076  0.00  0.00    -0.276 OA
ATOM     17  H   LIG d   1      -4.320  94.093 122.257  0.00  0.00     0.149 HD
ENDBRANCH   6  13
BRANCH   5  18
ATOM     18  N   LIG d   1      -5.365  96.706 119.808  0.00  0.00     0.381 N 
ATOM     19  H   LIG d   1      -5.564  96.935 118.854  0.00  0.00    -0.090 HD
ATOM     20  H   LIG d   1      -4.372  96.586 119.902  0.00  0.00    -0.090 HD
ATOM     21  H   LIG d   1      -5.677  97.439 120.406  0.00  0.00    -0.090 HD
ENDBRANCH   5  18
BRANCH   3  22
ATOM     22  C   LIG d   1      -9.010  93.765 118.804  0.00  0.00     0.382 C 
ATOM     23  O   LIG d   1      -9.351  94.241 117.695  0.00  0.00    -0.241 OA
ATOM     24  O   LIG d   1      -9.863  93.209 119.521  0.00  0.00    -0.241 OA
ENDBRANCH   3  22
TORSDOF 7
ENDMDL
MODEL 7
REMARK VINA RESULT:      -4.4      3.094      5.744
REMARK  7 active torsions:
REMARK  status: ('A' for Active; 'I' for Inactive)
REMARK    1  A    between atoms: C_2  and  C_3 
REMARK    2  A    between atoms: C_3  and  O_6 
REMARK    3  A    between atoms: C_3  and  C_4 
REMARK    4  A    between atoms: C_7  and  O_6 
REMARK    5  A    between atoms: C_9  and  C_10 
REMARK    6  A    between atoms: N_15  and  C_14 
REMARK    7  A    between atoms: N_20  and  C_19 
REMARK       I    between atoms: C_22  and  N_20 
ROOT
ATOM      1  C   LIG d   1      -2.084  91.703 119.024  0.00  0.00     0.161 C 
ATOM      2  C   LIG d   1      -3.335  92.059 119.554  0.00  0.00     0.016 C 
ATOM      3  C   LIG d   1      -4.564  91.629 119.003  0.00  0.00     0.038 C 
ATOM      4  C   LIG d   1      -4.623  90.684 117.968  0.00  0.00     0.028 C 
ATOM      5  C   LIG d   1      -3.387  90.686 117.075  0.00  0.00    -0.047 C 
ATOM      6  C   LIG d   1      -2.126  90.583 117.963  0.00  0.00     0.091 C 
ENDROOT
BRANCH   1   7
ATOM      7  O   LIG d   1      -1.184  91.347 120.092  0.00  0.00    -0.368 OA
BRANCH   7   8
ATOM      8  C   LIG d   1      -0.462  92.441 120.709  0.00  0.00     0.119 C 
BRANCH   8   9
ATOM      9  C   LIG d   1       0.364  93.131 119.606  0.00  0.00     0.028 C 
ATOM     10  C   LIG d   1       1.620  92.330 119.226  0.00  0.00     0.006 C 
ENDBRANCH   8   9
BRANCH   8  11
ATOM     11  C   LIG d   1       0.564  91.930 121.724  0.00  0.00     0.028 C 
ATOM     12  C   LIG d   1       0.866  92.952 122.832  0.00  0.00     0.006 C 
ENDBRANCH   8  11
ENDBRANCH   7   8
ENDBRANCH   1   7
BRANCH   6  13
ATOM     13  N   LIG d   1      -0.869  90.664 117.174  0.00  0.00    -0.311 N 
ATOM     14  C   LIG d   1      -0.192  89.593 116.763  0.00  0.00     0.210 C 
ATOM     15  C   LIG d   1       1.089  89.900 115.980  0.00  0.00     0.109 C 
ATOM     16  O   LIG d   1      -0.547  88.419 116.944  0.00  0.00    -0.276 OA
ATOM     17  H   LIG d   1      -0.525  91.578 116.955  0.00  0.00     0.149 HD
ENDBRANCH   6  13
BRANCH   5  18
ATOM     18  N   LIG d   1      -3.520  89.564 116.127  0.00  0.00     0.381 N 
ATOM     19  H   LIG d   1      -4.461  89.226 116.133  0.00  0.00    -0.090 HD
ATOM     20  H   LIG d   1      -2.914  88.818 116.420  0.00  0.00    -0.090 HD
ATOM     21  H   LIG d   1      -3.272  89.862 115.209  0.00  0.00    -0.090 HD
ENDBRANCH   5  18
BRANCH   3  22
ATOM     22  C   LIG d   1      -5.752  92.177 119.463  0.00  0.00     0.382 C 
ATOM     23  O   LIG d   1      -5.862  92.514 120.667  0.00  0.00    -0.241 OA
ATOM     24  O   LIG d   1      -6.729  92.297 118.700  0.00  0.00    -0.241 OA
ENDBRANCH   3  22
TORSDOF 7
ENDMDL
MODEL 8
REMARK VINA RESULT:      -4.4      1.490      2.071
REMARK  7 active torsions:
REMARK  status: ('A' for Active; 'I' for Inactive)
REMARK    1  A    between atoms: C_2  and  C_3 
REMARK    2  A    between atoms: C_3  and  O_6 
REMARK    3  A    between atoms: C_3  and  C_4 
REMARK    4  A    between atoms: C_7  and  O_6 
REMARK    5  A    between atoms: C_9  and  C_10 
REMARK    6  A    between atoms: N_15  and  C_14 
REMARK    7  A    between atoms: N_20  and  C_19 
REMARK       I    between atoms: C_22  and  N_20 
ROOT
ATOM      1  C   LIG d   1      -5.259  91.968 119.722  0.00  0.00     0.161 C 
ATOM      2  C   LIG d   1      -4.194  91.357 119.040  0.00  0.00     0.016 C 
ATOM      3  C   LIG d   1      -4.278  90.923 117.697  0.00  0.00     0.038 C 
ATOM      4  C   LIG d   1      -5.392  91.208 116.893  0.00  0.00     0.028 C 
ATOM      5  C   LIG d   1      -6.684  91.374 117.686  0.00  0.00    -0.047 C 
ATOM      6  C   LIG d   1      -6.445  92.388 118.828  0.00  0.00     0.091 C 
ENDROOT
BRANCH   1   7
ATOM      7  O   LIG d   1      -4.774  93.098 120.474  0.00  0.00    -0.368 OA
BRANCH   7   8
ATOM      8  C   LIG d   1      -4.602  94.331 119.733  0.00  0.00     0.119 C 
BRANCH   8   9
ATOM      9  C   LIG d   1      -3.119  94.734 119.843  0.00  0.00     0.028 C 
ATOM     10  C   LIG d   1      -2.401  94.020 121.001  0.00  0.00     0.006 C 
ENDBRANCH   8   9
BRANCH   8  11
ATOM     11  C   LIG d   1      -5.384  95.481 120.374  0.00  0.00     0.028 C 
ATOM     12  C   LIG d   1      -5.940  95.123 121.761  0.00  0.00     0.006 C 
ENDBRANCH   8  11
ENDBRANCH   7   8
ENDBRANCH   1   7
BRANCH   6  13
ATOM     13  N   LIG d   1      -7.635  92.546 119.704  0.00  0.00    -0.311 N 
ATOM     14  C   LIG d   1      -8.544  93.505 119.540  0.00  0.00     0.210 C 
ATOM     15  C   LIG d   1      -9.682  93.500 120.566  0.00  0.00     0.109 C 
ATOM     16  O   LIG d   1      -8.534  94.340 118.623  0.00  0.00    -0.276 OA
ATOM     17  H   LIG d   1      -7.739  91.892 120.455  0.00  0.00     0.149 HD
ENDBRANCH   6  13
BRANCH   5  18
ATOM     18  N   LIG d   1      -7.733  91.804 116.742  0.00  0.00     0.381 N 
ATOM     19  H   LIG d   1      -8.583  91.312 116.935  0.00  0.00    -0.090 HD
ATOM     20  H   LIG d   1      -7.443  91.577 115.807  0.00  0.00    -0.090 HD
ATOM     21  H   LIG d   1      -7.883  92.785 116.822  0.00  0.00    -0.090 HD
ENDBRANCH   5  18
BRANCH   3  22
ATOM     22  C   LIG d   1      -3.254  90.159 117.157  0.00  0.00     0.382 C 
ATOM     23  O   LIG d   1      -2.076  90.316 117.559  0.00  0.00    -0.241 OA
ATOM     24  O   LIG d   1      -3.487  89.346 116.242  0.00  0.00    -0.241 OA
ENDBRANCH   3  22
TORSDOF 7
ENDMDL
MODEL 9
REMARK VINA RESULT:      -4.4      2.766      5.644
REMARK  7 active torsions:
REMARK  status: ('A' for Active; 'I' for Inactive)
REMARK    1  A    between atoms: C_2  and  C_3 
REMARK    2  A    between atoms: C_3  and  O_6 
REMARK    3  A    between atoms: C_3  and  C_4 
REMARK    4  A    between atoms: C_7  and  O_6 
REMARK    5  A    between atoms: C_9  and  C_10 
REMARK    6  A    between atoms: N_15  and  C_14 
REMARK    7  A    between atoms: N_20  and  C_19 
REMARK       I    between atoms: C_22  and  N_20 
ROOT
ATOM      1  C   LIG d   1      -5.796  93.075 120.014  0.00  0.00     0.161 C 
ATOM      2  C   LIG d   1      -7.161  92.745 120.026  0.00  0.00     0.016 C 
ATOM      3  C   LIG d   1      -8.185  93.680 120.302  0.00  0.00     0.038 C 
ATOM      4  C   LIG d   1      -7.921  95.051 120.438  0.00  0.00     0.028 C 
ATOM      5  C   LIG d   1      -6.510  95.349 120.934  0.00  0.00    -0.047 C 
ATOM      6  C   LIG d   1      -5.496  94.588 120.050  0.00  0.00     0.091 C 
ENDROOT
BRANCH   1   7
ATOM      7  O   LIG d   1      -5.155  92.464 118.876  0.00  0.00    -0.368 OA
BRANCH   7   8
ATOM      8  C   LIG d   1      -4.378  91.272 119.146  0.00  0.00     0.119 C 
BRANCH   8   9
ATOM      9  C   LIG d   1      -2.939  91.720 119.466  0.00  0.00     0.028 C 
ATOM     10  C   LIG d   1      -2.533  91.401 120.915  0.00  0.00     0.006 C 
ENDBRANCH   8   9
BRANCH   8  11
ATOM     11  C   LIG d   1      -4.260  90.389 117.900  0.00  0.00     0.028 C 
ATOM     12  C   LIG d   1      -5.157  90.865 116.746  0.00  0.00     0.006 C 
ENDBRANCH   8  11
ENDBRANCH   7   8
ENDBRANCH   1   7
BRANCH   6  13
ATOM     13  N   LIG d   1      -4.096  94.758 120.518  0.00  0.00    -0.311 N 
ATOM     14  C   LIG d   1      -3.266  95.680 120.031  0.00  0.00     0.210 C 
ATOM     15  C   LIG d   1      -1.861  95.671 120.640  0.00  0.00     0.109 C 
ATOM     16  O   LIG d   1      -3.571  96.524 119.176  0.00  0.00    -0.276 OA
ATOM     17  H   LIG d   1      -3.775  94.135 121.233  0.00  0.00     0.149 HD
ENDBRANCH   6  13
BRANCH   5  18
ATOM     18  N   LIG d   1      -6.325  96.812 120.897  0.00  0.00     0.381 N 
ATOM     19  H   LIG d   1      -5.669  97.053 120.181  0.00  0.00    -0.090 HD
ATOM     20  H   LIG d   1      -5.954  97.115 121.780  0.00  0.00    -0.090 HD
ATOM     21  H   LIG d   1      -7.197  97.262 120.723  0.00  0.00    -0.090 HD
ENDBRANCH   5  18
BRANCH   3  22
ATOM     22  C   LIG d   1      -9.487  93.239 120.485  0.00  0.00     0.382 C 
ATOM     23  O   LIG d   1     -10.336  93.396 119.575  0.00  0.00    -0.241 OA
ATOM     24  O   LIG d   1      -9.834  92.725 121.566  0.00  0.00    -0.241 OA
ENDBRANCH   3  22
TORSDOF 7
ENDMDL
