MODEL 1
REMARK VINA RESULT:      -4.8      0.000      0.000
REMARK  7 active torsions:
REMARK  status: ('A' for Active; 'I' for Inactive)
REMARK    1  A    between atoms: C_2  and  C_3 
REMARK    2  A    between atoms: C_3  and  O_6 
REMARK    3  A    between atoms: C_3  and  C_4 
REMARK    4  A    between atoms: C_7  and  O_6 
REMARK    5  A    between atoms: C_9  and  C_10 
REMARK    6  A    between atoms: N_15  and  C_14 
REMARK    7  A    between atoms: N_20  and  C_19 
REMARK       I    between atoms: C_22  and  N_20 
ROOT
ATOM      1  C   LIG d   1      -5.866  93.977 118.708  0.00  0.00     0.161 C 
ATOM      2  C   LIG d   1      -6.623  93.204 117.811  0.00  0.00     0.016 C 
ATOM      3  C   LIG d   1      -6.072  92.171 117.018  0.00  0.00     0.038 C 
ATOM      4  C   LIG d   1      -4.748  91.737 117.180  0.00  0.00     0.028 C 
ATOM      5  C   LIG d   1      -3.816  92.821 117.712  0.00  0.00    -0.047 C 
ATOM      6  C   LIG d   1      -4.443  93.444 118.980  0.00  0.00     0.091 C 
ENDROOT
BRANCH   1   7
ATOM      7  O   LIG d   1      -6.587  94.134 119.946  0.00  0.00    -0.368 OA
BRANCH   7   8
ATOM      8  C   LIG d   1      -7.058  95.471 120.244  0.00  0.00     0.119 C 
BRANCH   8   9
ATOM      9  C   LIG d   1      -8.555  95.367 120.594  0.00  0.00     0.028 C 
ATOM     10  C   LIG d   1      -8.859  94.181 121.524  0.00  0.00     0.006 C 
ENDBRANCH   8   9
BRANCH   8  11
ATOM     11  C   LIG d   1      -6.993  96.373 119.008  0.00  0.00     0.028 C 
ATOM     12  C   LIG d   1      -8.370  96.609 118.369  0.00  0.00     0.006 C 
ENDBRANCH   8  11
ENDBRANCH   7   8
ENDBRANCH   1   7
BRANCH   6  13
ATOM     13  N   LIG d   1      -3.636  94.571 119.516  0.00  0.00    -0.311 N 
ATOM     14  C   LIG d   1      -2.694  94.420 120.446  0.00  0.00     0.210 C 
ATOM     15  C   LIG d   1      -1.995  95.715 120.873  0.00  0.00     0.109 C 
ATOM     16  O   LIG d   1      -2.349  93.334 120.934  0.00  0.00    -0.276 OA
ATOM     17  H   LIG d   1      -3.829  95.484 119.153  0.00  0.00     0.149 HD
ENDBRANCH   6  13
BRANCH   5  18
ATOM     18  N   LIG d   1      -2.504  92.196 117.963  0.00  0.00     0.381 N 
ATOM     19  H   LIG d   1      -2.627  91.231 118.196  0.00  0.00    -0.090 HD
ATOM     20  H   LIG d   1      -2.069  92.656 118.744  0.00  0.00    -0.090 HD
ATOM     21  H   LIG d   1      -1.926  92.279 117.156  0.00  0.00    -0.090 HD
ENDBRANCH   5  18
BRANCH   3  22
ATOM     22  C   LIG d   1      -6.839  91.587 116.022  0.00  0.00     0.382 C 
ATOM     23  O   LIG d   1      -7.967  92.059 115.741  0.00  0.00    -0.241 OA
ATOM     24  O   LIG d   1      -6.437  90.567 115.431  0.00  0.00    -0.241 OA
ENDBRANCH   3  22
TORSDOF 7
ENDMDL
MODEL 2
REMARK VINA RESULT:      -4.8      2.162      4.471
REMARK  7 active torsions:
REMARK  status: ('A' for Active; 'I' for Inactive)
REMARK    1  A    between atoms: C_2  and  C_3 
REMARK    2  A    between atoms: C_3  and  O_6 
REMARK    3  A    between atoms: C_3  and  C_4 
REMARK    4  A    between atoms: C_7  and  O_6 
REMARK    5  A    between atoms: C_9  and  C_10 
REMARK    6  A    between atoms: N_15  and  C_14 
REMARK    7  A    between atoms: N_20  and  C_19 
REMARK       I    between atoms: C_22  and  N_20 
ROOT
ATOM      1  C   LIG d   1      -4.072  92.878 118.426  0.00  0.00     0.161 C 
ATOM      2  C   LIG d   1      -4.708  92.278 117.327  0.00  0.00     0.016 C 
ATOM      3  C   LIG d   1      -6.082  92.444 117.037  0.00  0.00     0.038 C 
ATOM      4  C   LIG d   1      -6.885  93.349 117.747  0.00  0.00     0.028 C 
ATOM      5  C   LIG d   1      -6.408  93.592 119.175  0.00  0.00    -0.047 C 
ATOM      6  C   LIG d   1      -4.906  93.957 119.147  0.00  0.00     0.091 C 
ENDROOT
BRANCH   1   7
ATOM      7  O   LIG d   1      -2.799  93.418 118.019  0.00  0.00    -0.368 OA
BRANCH   7   8
ATOM      8  C   LIG d   1      -1.664  92.522 118.121  0.00  0.00     0.119 C 
BRANCH   8   9
ATOM      9  C   LIG d   1      -1.524  92.120 119.602  0.00  0.00     0.028 C 
ATOM     10  C   LIG d   1      -0.636  93.095 120.393  0.00  0.00     0.006 C 
ENDBRANCH   8   9
BRANCH   8  11
ATOM     11  C   LIG d   1      -0.356  93.237 117.770  0.00  0.00     0.028 C 
ATOM     12  C   LIG d   1      -0.575  94.485 116.900  0.00  0.00     0.006 C 
ENDBRANCH   8  11
ENDBRANCH   7   8
ENDBRANCH   1   7
BRANCH   6  13
ATOM     13  N   LIG d   1      -4.339  94.129 120.510  0.00  0.00    -0.311 N 
ATOM     14  C   LIG d   1      -3.643  95.201 120.884  0.00  0.00     0.210 C 
ATOM     15  C   LIG d   1      -3.131  95.167 122.328  0.00  0.00     0.109 C 
ATOM     16  O   LIG d   1      -3.428  96.191 120.169  0.00  0.00    -0.276 OA
ATOM     17  H   LIG d   1      -4.493  93.387 121.164  0.00  0.00     0.149 HD
ENDBRANCH   6  13
BRANCH   5  18
ATOM     18  N   LIG d   1      -7.251  94.656 119.752  0.00  0.00     0.381 N 
ATOM     19  H   LIG d   1      -7.456  94.445 120.708  0.00  0.00    -0.090 HD
ATOM     20  H   LIG d   1      -8.117  94.696 119.244  0.00  0.00    -0.090 HD
ATOM     21  H   LIG d   1      -6.782  95.533 119.691  0.00  0.00    -0.090 HD
ENDBRANCH   5  18
BRANCH   3  22
ATOM     22  C   LIG d   1      -6.676  91.669 116.053  0.00  0.00     0.382 C 
ATOM     23  O   LIG d   1      -6.019  90.760 115.489  0.00  0.00    -0.241 OA
ATOM     24  O   LIG d   1      -7.845  91.896 115.690  0.00  0.00    -0.241 OA
ENDBRANCH   3  22
TORSDOF 7
ENDMDL
MODEL 3
REMARK VINA RESULT:      -4.6      4.915      7.875
REMARK  7 active torsions:
REMARK  status: ('A' for Active; 'I' for Inactive)
REMARK    1  A    between atoms: C_2  and  C_3 
REMARK    2  A    between atoms: C_3  and  O_6 
REMARK    3  A    between atoms: C_3  and  C_4 
REMARK    4  A    between atoms: C_7  and  O_6 
REMARK    5  A    between atoms: C_9  and  C_10 
REMARK    6  A    between atoms: N_15  and  C_14 
REMARK    7  A    between atoms: N_20  and  C_19 
REMARK       I    between atoms: C_22  and  N_20 
ROOT
ATOM      1  C   LIG d   1      -0.048  91.128 117.530  0.00  0.00     0.161 C 
ATOM      2  C   LIG d   1       1.336  91.190 117.296  0.00  0.00     0.016 C 
ATOM      3  C   LIG d   1       2.063  92.401 117.237  0.00  0.00     0.038 C 
ATOM      4  C   LIG d   1       1.476  93.634 117.560  0.00  0.00     0.028 C 
ATOM      5  C   LIG d   1      -0.027  93.674 117.308  0.00  0.00    -0.047 C 
ATOM      6  C   LIG d   1      -0.684  92.455 117.995  0.00  0.00     0.091 C 
ENDROOT
BRANCH   1   7
ATOM      7  O   LIG d   1      -0.338  90.076 118.471  0.00  0.00    -0.368 OA
BRANCH   7   8
ATOM      8  C   LIG d   1      -1.177  89.000 117.985  0.00  0.00     0.119 C 
BRANCH   8   9
ATOM      9  C   LIG d   1      -2.421  88.937 118.893  0.00  0.00     0.028 C 
ATOM     10  C   LIG d   1      -2.203  89.652 120.237  0.00  0.00     0.006 C 
ENDBRANCH   8   9
BRANCH   8  11
ATOM     11  C   LIG d   1      -0.489  87.641 118.145  0.00  0.00     0.028 C 
ATOM     12  C   LIG d   1       0.556  87.371 117.051  0.00  0.00     0.006 C 
ENDBRANCH   8  11
ENDBRANCH   7   8
ENDBRANCH   1   7
BRANCH   6  13
ATOM     13  N   LIG d   1      -2.144  92.372 117.727  0.00  0.00    -0.311 N 
ATOM     14  C   LIG d   1      -3.068  92.889 118.534  0.00  0.00     0.210 C 
ATOM     15  C   LIG d   1      -4.515  92.674 118.081  0.00  0.00     0.109 C 
ATOM     16  O   LIG d   1      -2.825  93.534 119.565  0.00  0.00    -0.276 OA
ATOM     17  H   LIG d   1      -2.428  91.892 116.895  0.00  0.00     0.149 HD
ENDBRANCH   6  13
BRANCH   5  18
ATOM     18  N   LIG d   1      -0.530  94.964 117.815  0.00  0.00     0.381 N 
ATOM     19  H   LIG d   1      -1.530  94.977 117.777  0.00  0.00    -0.090 HD
ATOM     20  H   LIG d   1      -0.183  95.702 117.228  0.00  0.00    -0.090 HD
ATOM     21  H   LIG d   1      -0.225  95.104 118.753  0.00  0.00    -0.090 HD
ENDBRANCH   5  18
BRANCH   3  22
ATOM     22  C   LIG d   1       3.383  92.391 116.813  0.00  0.00     0.382 C 
ATOM     23  O   LIG d   1       4.095  93.414 116.954  0.00  0.00    -0.241 OA
ATOM     24  O   LIG d   1       3.858  91.386 116.250  0.00  0.00    -0.241 OA
ENDBRANCH   3  22
TORSDOF 7
ENDMDL
MODEL 4
REMARK VINA RESULT:      -4.3      4.762      7.237
REMARK  7 active torsions:
REMARK  status: ('A' for Active; 'I' for Inactive)
REMARK    1  A    between atoms: C_2  and  C_3 
REMARK    2  A    between atoms: C_3  and  O_6 
REMARK    3  A    between atoms: C_3  and  C_4 
REMARK    4  A    between atoms: C_7  and  O_6 
REMARK    5  A    between atoms: C_9  and  C_10 
REMARK    6  A    between atoms: N_15  and  C_14 
REMARK    7  A    between atoms: N_20  and  C_19 
REMARK       I    between atoms: C_22  and  N_20 
ROOT
ATOM      1  C   LIG d   1       0.239  91.702 119.175  0.00  0.00     0.161 C 
ATOM      2  C   LIG d   1       1.280  92.231 118.394  0.00  0.00     0.016 C 
ATOM      3  C   LIG d   1       1.834  91.561 117.279  0.00  0.00     0.038 C 
ATOM      4  C   LIG d   1       1.278  90.377 116.774  0.00  0.00     0.028 C 
ATOM      5  C   LIG d   1       0.549  89.552 117.829  0.00  0.00    -0.047 C 
ATOM      6  C   LIG d   1      -0.455  90.462 118.573  0.00  0.00     0.091 C 
ENDROOT
BRANCH   1   7
ATOM      7  O   LIG d   1      -0.730  92.731 119.458  0.00  0.00    -0.368 OA
BRANCH   7   8
ATOM      8  C   LIG d   1      -1.597  93.109 118.361  0.00  0.00     0.119 C 
BRANCH   8   9
ATOM      9  C   LIG d   1      -1.352  94.602 118.070  0.00  0.00     0.028 C 
ATOM     10  C   LIG d   1      -0.680  94.832 116.706  0.00  0.00     0.006 C 
ENDBRANCH   8   9
BRANCH   8  11
ATOM     11  C   LIG d   1      -3.073  93.010 118.757  0.00  0.00     0.028 C 
ATOM     12  C   LIG d   1      -3.935  92.331 117.681  0.00  0.00     0.006 C 
ENDBRANCH   8  11
ENDBRANCH   7   8
ENDBRANCH   1   7
BRANCH   6  13
ATOM     13  N   LIG d   1      -1.151  89.755 119.679  0.00  0.00    -0.311 N 
ATOM     14  C   LIG d   1      -2.327  89.145 119.535  0.00  0.00     0.210 C 
ATOM     15  C   LIG d   1      -2.877  88.494 120.807  0.00  0.00     0.109 C 
ATOM     16  O   LIG d   1      -2.950  89.055 118.466  0.00  0.00    -0.276 OA
ATOM     17  H   LIG d   1      -0.701  89.752 120.573  0.00  0.00     0.149 HD
ENDBRANCH   6  13
BRANCH   5  18
ATOM     18  N   LIG d   1      -0.098  88.419 117.141  0.00  0.00     0.381 N 
ATOM     19  H   LIG d   1      -1.033  88.667 116.886  0.00  0.00    -0.090 HD
ATOM     20  H   LIG d   1      -0.140  87.637 117.771  0.00  0.00    -0.090 HD
ATOM     21  H   LIG d   1       0.421  88.172 116.328  0.00  0.00    -0.090 HD
ENDBRANCH   5  18
BRANCH   3  22
ATOM     22  C   LIG d   1       2.983  92.057 116.681  0.00  0.00     0.382 C 
ATOM     23  O   LIG d   1       3.655  91.326 115.914  0.00  0.00    -0.241 OA
ATOM     24  O   LIG d   1       3.379  93.210 116.933  0.00  0.00    -0.241 OA
ENDBRANCH   3  22
TORSDOF 7
ENDMDL
MODEL 5
REMARK VINA RESULT:      -4.3      4.447      7.728
REMARK  7 active torsions:
REMARK  status: ('A' for Active; 'I' for Inactive)
REMARK    1  A    between atoms: C_2  and  C_3 
REMARK    2  A    between atoms: C_3  and  O_6 
REMARK    3  A    between atoms: C_3  and  C_4 
REMARK    4  A    between atoms: C_7  and  O_6 
REMARK    5  A    between atoms: C_9  and  C_10 
REMARK    6  A    between atoms: N_15  and  C_14 
REMARK    7  A    between atoms: N_20  and  C_19 
REMARK       I    between atoms: C_22  and  N_20 
ROOT
ATOM      1  C   LIG d   1      -0.507  91.598 118.200  0.00  0.00     0.161 C 
ATOM      2  C   LIG d   1       0.871  91.866 118.258  0.00  0.00     0.016 C 
ATOM      3  C   LIG d   1       1.428  93.140 118.003  0.00  0.00     0.038 C 
ATOM      4  C   LIG d   1       0.626  94.276 117.818  0.00  0.00     0.028 C 
ATOM      5  C   LIG d   1      -0.753  93.958 117.251  0.00  0.00    -0.047 C 
ATOM      6  C   LIG d   1      -1.405  92.850 118.109  0.00  0.00     0.091 C 
ENDROOT
BRANCH   1   7
ATOM      7  O   LIG d   1      -0.895  90.784 119.324  0.00  0.00    -0.368 OA
BRANCH   7   8
ATOM      8  C   LIG d   1      -0.466  89.400 119.287  0.00  0.00     0.119 C 
BRANCH   8   9
ATOM      9  C   LIG d   1      -1.004  88.783 117.982  0.00  0.00     0.028 C 
ATOM     10  C   LIG d   1       0.022  87.862 117.301  0.00  0.00     0.006 C 
ENDBRANCH   8   9
BRANCH   8  11
ATOM     11  C   LIG d   1      -1.108  88.588 120.415  0.00  0.00     0.028 C 
ATOM     12  C   LIG d   1      -1.891  89.461 121.407  0.00  0.00     0.006 C 
ENDBRANCH   8  11
ENDBRANCH   7   8
ENDBRANCH   1   7
BRANCH   6  13
ATOM     13  N   LIG d   1      -2.723  92.419 117.573  0.00  0.00    -0.311 N 
ATOM     14  C   LIG d   1      -3.887  92.863 118.045  0.00  0.00     0.210 C 
ATOM     15  C   LIG d   1      -5.127  92.277 117.364  0.00  0.00     0.109 C 
ATOM     16  O   LIG d   1      -4.009  93.711 118.942  0.00  0.00    -0.276 OA
ATOM     17  H   LIG d   1      -2.716  91.756 116.823  0.00  0.00     0.149 HD
ENDBRANCH   6  13
BRANCH   5  18
ATOM     18  N   LIG d   1      -1.530  95.212 117.239  0.00  0.00     0.381 N 
ATOM     19  H   LIG d   1      -2.499  95.011 117.385  0.00  0.00    -0.090 HD
ATOM     20  H   LIG d   1      -1.431  95.647 116.339  0.00  0.00    -0.090 HD
ATOM     21  H   LIG d   1      -1.199  95.825 117.951  0.00  0.00    -0.090 HD
ENDBRANCH   5  18
BRANCH   3  22
ATOM     22  C   LIG d   1       2.803  93.279 117.890  0.00  0.00     0.382 C 
ATOM     23  O   LIG d   1       3.495  93.507 118.912  0.00  0.00    -0.241 OA
ATOM     24  O   LIG d   1       3.355  93.223 116.775  0.00  0.00    -0.241 OA
ENDBRANCH   3  22
TORSDOF 7
ENDMDL
MODEL 6
REMARK VINA RESULT:      -4.1      4.982      7.916
REMARK  7 active torsions:
REMARK  status: ('A' for Active; 'I' for Inactive)
REMARK    1  A    between atoms: C_2  and  C_3 
REMARK    2  A    between atoms: C_3  and  O_6 
REMARK    3  A    between atoms: C_3  and  C_4 
REMARK    4  A    between atoms: C_7  and  O_6 
REMARK    5  A    between atoms: C_9  and  C_10 
REMARK    6  A    between atoms: N_15  and  C_14 
REMARK    7  A    between atoms: N_20  and  C_19 
REMARK       I    between atoms: C_22  and  N_20 
ROOT
ATOM      1  C   LIG d   1      -0.193  91.139 117.381  0.00  0.00     0.161 C 
ATOM      2  C   LIG d   1       1.194  91.173 117.157  0.00  0.00     0.016 C 
ATOM      3  C   LIG d   1       1.966  92.355 117.237  0.00  0.00     0.038 C 
ATOM      4  C   LIG d   1       1.425  93.564 117.697  0.00  0.00     0.028 C 
ATOM      5  C   LIG d   1      -0.075  93.690 117.450  0.00  0.00    -0.047 C 
ATOM      6  C   LIG d   1      -0.781  92.427 117.993  0.00  0.00     0.091 C 
ENDROOT
BRANCH   1   7
ATOM      7  O   LIG d   1      -0.528  89.999 118.197  0.00  0.00    -0.368 OA
BRANCH   7   8
ATOM      8  C   LIG d   1       0.404  89.679 119.259  0.00  0.00     0.119 C 
BRANCH   8   9
ATOM      9  C   LIG d   1       0.543  88.145 119.308  0.00  0.00     0.028 C 
ATOM     10  C   LIG d   1      -0.060  87.462 118.069  0.00  0.00     0.006 C 
ENDBRANCH   8   9
BRANCH   8  11
ATOM     11  C   LIG d   1      -0.153  90.079 120.629  0.00  0.00     0.028 C 
ATOM     12  C   LIG d   1      -1.686  89.983 120.699  0.00  0.00     0.006 C 
ENDBRANCH   8  11
ENDBRANCH   7   8
ENDBRANCH   1   7
BRANCH   6  13
ATOM     13  N   LIG d   1      -2.241  92.431 117.716  0.00  0.00    -0.311 N 
ATOM     14  C   LIG d   1      -3.151  92.866 118.586  0.00  0.00     0.210 C 
ATOM     15  C   LIG d   1      -4.603  92.763 118.108  0.00  0.00     0.109 C 
ATOM     16  O   LIG d   1      -2.892  93.358 119.695  0.00  0.00    -0.276 OA
ATOM     17  H   LIG d   1      -2.538  92.078 116.828  0.00  0.00     0.149 HD
ENDBRANCH   6  13
BRANCH   5  18
ATOM     18  N   LIG d   1      -0.531  94.933 118.100  0.00  0.00     0.381 N 
ATOM     19  H   LIG d   1      -1.335  94.744 118.665  0.00  0.00    -0.090 HD
ATOM     20  H   LIG d   1      -0.792  95.595 117.390  0.00  0.00    -0.090 HD
ATOM     21  H   LIG d   1       0.198  95.310 118.664  0.00  0.00    -0.090 HD
ENDBRANCH   5  18
BRANCH   3  22
ATOM     22  C   LIG d   1       3.287  92.342 116.815  0.00  0.00     0.382 C 
ATOM     23  O   LIG d   1       3.994  93.371 116.939  0.00  0.00    -0.241 OA
ATOM     24  O   LIG d   1       3.767  91.330 116.271  0.00  0.00    -0.241 OA
ENDBRANCH   3  22
TORSDOF 7
ENDMDL
MODEL 7
REMARK VINA RESULT:      -4.1      4.760      7.405
REMARK  7 active torsions:
REMARK  status: ('A' for Active; 'I' for Inactive)
REMARK    1  A    between atoms: C_2  and  C_3 
REMARK    2  A    between atoms: C_3  and  O_6 
REMARK    3  A    between atoms: C_3  and  C_4 
REMARK    4  A    between atoms: C_7  and  O_6 
REMARK    5  A    between atoms: C_9  and  C_10 
REMARK    6  A    between atoms: N_15  and  C_14 
REMARK    7  A    between atoms: N_20  and  C_19 
REMARK       I    between atoms: C_22  and  N_20 
ROOT
ATOM      1  C   LIG d   1      -0.396  91.567 118.317  0.00  0.00     0.161 C 
ATOM      2  C   LIG d   1      -1.792  91.612 118.168  0.00  0.00     0.016 C 
ATOM      3  C   LIG d   1      -2.522  92.815 118.035  0.00  0.00     0.038 C 
ATOM      4  C   LIG d   1      -1.885  94.056 117.888  0.00  0.00     0.028 C 
ATOM      5  C   LIG d   1      -0.507  94.110 118.538  0.00  0.00    -0.047 C 
ATOM      6  C   LIG d   1       0.326  92.904 118.048  0.00  0.00     0.091 C 
ENDROOT
BRANCH   1   7
ATOM      7  O   LIG d   1       0.151  90.526 117.483  0.00  0.00    -0.368 OA
BRANCH   7   8
ATOM      8  C   LIG d   1       0.578  89.321 118.166  0.00  0.00     0.119 C 
BRANCH   8   9
ATOM      9  C   LIG d   1       2.018  89.017 117.711  0.00  0.00     0.028 C 
ATOM     10  C   LIG d   1       2.359  89.674 116.363  0.00  0.00     0.006 C 
ENDBRANCH   8   9
BRANCH   8  11
ATOM     11  C   LIG d   1      -0.250  88.109 117.728  0.00  0.00     0.028 C 
ATOM     12  C   LIG d   1      -1.377  87.769 118.717  0.00  0.00     0.006 C 
ENDBRANCH   8  11
ENDBRANCH   7   8
ENDBRANCH   1   7
BRANCH   6  13
ATOM     13  N   LIG d   1       1.660  92.833 118.700  0.00  0.00    -0.311 N 
ATOM     14  C   LIG d   1       2.808  92.966 118.037  0.00  0.00     0.210 C 
ATOM     15  C   LIG d   1       4.069  92.841 118.898  0.00  0.00     0.109 C 
ATOM     16  O   LIG d   1       2.900  93.209 116.825  0.00  0.00    -0.276 OA
ATOM     17  H   LIG d   1       1.677  92.670 119.688  0.00  0.00     0.149 HD
ENDBRANCH   6  13
BRANCH   5  18
ATOM     18  N   LIG d   1       0.099  95.410 118.192  0.00  0.00     0.381 N 
ATOM     19  H   LIG d   1       0.519  95.815 119.004  0.00  0.00    -0.090 HD
ATOM     20  H   LIG d   1      -0.623  96.029 117.869  0.00  0.00    -0.090 HD
ATOM     21  H   LIG d   1       0.785  95.287 117.480  0.00  0.00    -0.090 HD
ENDBRANCH   5  18
BRANCH   3  22
ATOM     22  C   LIG d   1      -3.908  92.788 118.087  0.00  0.00     0.382 C 
ATOM     23  O   LIG d   1      -4.509  93.297 119.063  0.00  0.00    -0.241 OA
ATOM     24  O   LIG d   1      -4.563  92.221 117.191  0.00  0.00    -0.241 OA
ENDBRANCH   3  22
TORSDOF 7
ENDMDL
MODEL 8
REMARK VINA RESULT:      -3.9      4.786      7.026
REMARK  7 active torsions:
REMARK  status: ('A' for Active; 'I' for Inactive)
REMARK    1  A    between atoms: C_2  and  C_3 
REMARK    2  A    between atoms: C_3  and  O_6 
REMARK    3  A    between atoms: C_3  and  C_4 
REMARK    4  A    between atoms: C_7  and  O_6 
REMARK    5  A    between atoms: C_9  and  C_10 
REMARK    6  A    between atoms: N_15  and  C_14 
REMARK    7  A    between atoms: N_20  and  C_19 
REMARK       I    between atoms: C_22  and  N_20 
ROOT
ATOM      1  C   LIG d   1      -0.338  92.279 118.206  0.00  0.00     0.161 C 
ATOM      2  C   LIG d   1      -0.512  90.886 118.264  0.00  0.00     0.016 C 
ATOM      3  C   LIG d   1      -1.778  90.259 118.237  0.00  0.00     0.038 C 
ATOM      4  C   LIG d   1      -2.958  90.979 117.997  0.00  0.00     0.028 C 
ATOM      5  C   LIG d   1      -2.877  92.437 118.437  0.00  0.00    -0.047 C 
ATOM      6  C   LIG d   1      -1.606  93.075 117.832  0.00  0.00     0.091 C 
ENDROOT
BRANCH   1   7
ATOM      7  O   LIG d   1       0.739  92.600 117.303  0.00  0.00    -0.368 OA
BRANCH   7   8
ATOM      8  C   LIG d   1       1.818  93.395 117.855  0.00  0.00     0.119 C 
BRANCH   8   9
ATOM      9  C   LIG d   1       3.140  92.827 117.303  0.00  0.00     0.028 C 
ATOM     10  C   LIG d   1       3.174  91.289 117.329  0.00  0.00     0.006 C 
ENDBRANCH   8   9
BRANCH   8  11
ATOM     11  C   LIG d   1       1.909  93.232 119.375  0.00  0.00     0.028 C 
ATOM     12  C   LIG d   1       1.896  94.576 120.120  0.00  0.00     0.006 C 
ENDBRANCH   8  11
ENDBRANCH   7   8
ENDBRANCH   1   7
BRANCH   6  13
ATOM     13  N   LIG d   1      -1.406  94.477 118.282  0.00  0.00    -0.311 N 
ATOM     14  C   LIG d   1      -0.994  95.454 117.476  0.00  0.00     0.210 C 
ATOM     15  C   LIG d   1      -0.834  96.822 118.146  0.00  0.00     0.109 C 
ATOM     16  O   LIG d   1      -0.777  95.324 116.261  0.00  0.00    -0.276 OA
ATOM     17  H   LIG d   1      -1.589  94.678 119.246  0.00  0.00     0.149 HD
ENDBRANCH   6  13
BRANCH   5  18
ATOM     18  N   LIG d   1      -4.120  93.103 118.004  0.00  0.00     0.381 N 
ATOM     19  H   LIG d   1      -4.837  92.420 117.860  0.00  0.00    -0.090 HD
ATOM     20  H   LIG d   1      -3.951  93.572 117.132  0.00  0.00    -0.090 HD
ATOM     21  H   LIG d   1      -4.412  93.761 118.692  0.00  0.00    -0.090 HD
ENDBRANCH   5  18
BRANCH   3  22
ATOM     22  C   LIG d   1      -1.877  88.899 118.492  0.00  0.00     0.382 C 
ATOM     23  O   LIG d   1      -2.633  88.486 119.404  0.00  0.00    -0.241 OA
ATOM     24  O   LIG d   1      -1.187  88.085 117.850  0.00  0.00    -0.241 OA
ENDBRANCH   3  22
TORSDOF 7
ENDMDL
MODEL 9
REMARK VINA RESULT:      -3.8      6.778      9.920
REMARK  7 active torsions:
REMARK  status: ('A' for Active; 'I' for Inactive)
REMARK    1  A    between atoms: C_2  and  C_3 
REMARK    2  A    between atoms: C_3  and  O_6 
REMARK    3  A    between atoms: C_3  and  C_4 
REMARK    4  A    between atoms: C_7  and  O_6 
REMARK    5  A    between atoms: C_9  and  C_10 
REMARK    6  A    between atoms: N_15  and  C_14 
REMARK    7  A    between atoms: N_20  and  C_19 
REMARK       I    between atoms: C_22  and  N_20 
ROOT
ATOM      1  C   LIG d   1       2.674  92.249 117.705  0.00  0.00     0.161 C 
ATOM      2  C   LIG d   1       2.000  93.481 117.717  0.00  0.00     0.016 C 
ATOM      3  C   LIG d   1       0.600  93.604 117.560  0.00  0.00     0.038 C 
ATOM      4  C   LIG d   1      -0.244  92.484 117.531  0.00  0.00     0.028 C 
ATOM      5  C   LIG d   1       0.439  91.225 117.008  0.00  0.00    -0.047 C 
ATOM      6  C   LIG d   1       1.758  91.010 117.785  0.00  0.00     0.091 C 
ENDROOT
BRANCH   1   7
ATOM      7  O   LIG d   1       3.654  92.217 118.762  0.00  0.00    -0.368 OA
BRANCH   7   8
ATOM      8  C   LIG d   1       5.011  92.552 118.383  0.00  0.00     0.119 C 
BRANCH   8   9
ATOM      9  C   LIG d   1       5.880  91.301 118.621  0.00  0.00     0.028 C 
ATOM     10  C   LIG d   1       6.683  90.898 117.372  0.00  0.00     0.006 C 
ENDBRANCH   8   9
BRANCH   8  11
ATOM     11  C   LIG d   1       5.595  93.631 119.299  0.00  0.00     0.028 C 
ATOM     12  C   LIG d   1       6.297  94.756 118.522  0.00  0.00     0.006 C 
ENDBRANCH   8  11
ENDBRANCH   7   8
ENDBRANCH   1   7
BRANCH   6  13
ATOM     13  N   LIG d   1       2.531  89.845 117.280  0.00  0.00    -0.311 N 
ATOM     14  C   LIG d   1       3.255  89.876 116.163  0.00  0.00     0.210 C 
ATOM     15  C   LIG d   1       3.958  88.560 115.811  0.00  0.00     0.109 C 
ATOM     16  O   LIG d   1       3.409  90.877 115.447  0.00  0.00    -0.276 OA
ATOM     17  H   LIG d   1       2.487  89.001 117.816  0.00  0.00     0.149 HD
ENDBRANCH   6  13
BRANCH   5  18
ATOM     18  N   LIG d   1      -0.511  90.107 117.161  0.00  0.00     0.381 N 
ATOM     19  H   LIG d   1      -0.488  89.529 116.344  0.00  0.00    -0.090 HD
ATOM     20  H   LIG d   1      -1.439  90.480 117.257  0.00  0.00    -0.090 HD
ATOM     21  H   LIG d   1      -0.276  89.567 117.965  0.00  0.00    -0.090 HD
ENDBRANCH   5  18
BRANCH   3  22
ATOM     22  C   LIG d   1       0.036  94.859 117.390  0.00  0.00     0.382 C 
ATOM     23  O   LIG d   1       0.156  95.727 118.288  0.00  0.00    -0.241 OA
ATOM     24  O   LIG d   1      -0.630  95.120 116.370  0.00  0.00    -0.241 OA
ENDBRANCH   3  22
TORSDOF 7
ENDMDL
