MODEL 1
REMARK VINA RESULT:      -5.5      0.000      0.000
REMARK  7 active torsions:
REMARK  status: ('A' for Active; 'I' for Inactive)
REMARK    1  A    between atoms: C_2  and  C_3 
REMARK    2  A    between atoms: C_3  and  O_6 
REMARK    3  A    between atoms: C_3  and  C_4 
REMARK    4  A    between atoms: C_7  and  O_6 
REMARK    5  A    between atoms: C_9  and  C_10 
REMARK    6  A    between atoms: N_15  and  C_14 
REMARK    7  A    between atoms: N_20  and  C_19 
REMARK       I    between atoms: C_22  and  N_20 
ROOT
ATOM      1  C   LIG d   1      -5.318  92.768 118.259  0.00  0.00     0.161 C 
ATOM      2  C   LIG d   1      -6.318  91.956 117.700  0.00  0.00     0.016 C 
ATOM      3  C   LIG d   1      -6.045  90.781 116.962  0.00  0.00     0.038 C 
ATOM      4  C   LIG d   1      -4.749  90.254 116.862  0.00  0.00     0.028 C 
ATOM      5  C   LIG d   1      -3.654  91.309 116.981  0.00  0.00    -0.047 C 
ATOM      6  C   LIG d   1      -3.904  92.149 118.254  0.00  0.00     0.091 C 
ENDROOT
BRANCH   1   7
ATOM      7  O   LIG d   1      -5.692  93.153 119.597  0.00  0.00    -0.368 OA
BRANCH   7   8
ATOM      8  C   LIG d   1      -7.114  93.235 119.863  0.00  0.00     0.119 C 
BRANCH   8   9
ATOM      9  C   LIG d   1      -7.528  94.711 119.715  0.00  0.00     0.028 C 
ATOM     10  C   LIG d   1      -8.434  94.947 118.495  0.00  0.00     0.006 C 
ENDBRANCH   8   9
BRANCH   8  11
ATOM     11  C   LIG d   1      -7.431  92.867 121.315  0.00  0.00     0.028 C 
ATOM     12  C   LIG d   1      -6.709  91.592 121.779  0.00  0.00     0.006 C 
ENDBRANCH   8  11
ENDBRANCH   7   8
ENDBRANCH   1   7
BRANCH   6  13
ATOM     13  N   LIG d   1      -2.927  93.259 118.402  0.00  0.00    -0.311 N 
ATOM     14  C   LIG d   1      -1.810  93.162 119.122  0.00  0.00     0.210 C 
ATOM     15  C   LIG d   1      -0.952  94.430 119.159  0.00  0.00     0.109 C 
ATOM     16  O   LIG d   1      -1.433  92.135 119.707  0.00  0.00    -0.276 OA
ATOM     17  H   LIG d   1      -3.139  94.119 117.935  0.00  0.00     0.149 HD
ENDBRANCH   6  13
BRANCH   5  18
ATOM     18  N   LIG d   1      -2.357  90.607 116.997  0.00  0.00     0.381 N 
ATOM     19  H   LIG d   1      -1.693  91.135 117.526  0.00  0.00    -0.090 HD
ATOM     20  H   LIG d   1      -2.019  90.527 116.055  0.00  0.00    -0.090 HD
ATOM     21  H   LIG d   1      -2.465  89.700 117.396  0.00  0.00    -0.090 HD
ENDBRANCH   5  18
BRANCH   3  22
ATOM     22  C   LIG d   1      -7.070  90.142 116.282  0.00  0.00     0.382 C 
ATOM     23  O   LIG d   1      -7.744  90.771 115.430  0.00  0.00    -0.241 OA
ATOM     24  O   LIG d   1      -7.359  88.959 116.541  0.00  0.00    -0.241 OA
ENDBRANCH   3  22
TORSDOF 7
ENDMDL
MODEL 2
REMARK VINA RESULT:      -5.4      0.919      1.713
REMARK  7 active torsions:
REMARK  status: ('A' for Active; 'I' for Inactive)
REMARK    1  A    between atoms: C_2  and  C_3 
REMARK    2  A    between atoms: C_3  and  O_6 
REMARK    3  A    between atoms: C_3  and  C_4 
REMARK    4  A    between atoms: C_7  and  O_6 
REMARK    5  A    between atoms: C_9  and  C_10 
REMARK    6  A    between atoms: N_15  and  C_14 
REMARK    7  A    between atoms: N_20  and  C_19 
REMARK       I    between atoms: C_22  and  N_20 
ROOT
ATOM      1  C   LIG d   1      -5.653  92.622 118.488  0.00  0.00     0.161 C 
ATOM      2  C   LIG d   1      -6.590  91.769 117.882  0.00  0.00     0.016 C 
ATOM      3  C   LIG d   1      -6.232  90.702 117.026  0.00  0.00     0.038 C 
ATOM      4  C   LIG d   1      -4.896  90.321 116.835  0.00  0.00     0.028 C 
ATOM      5  C   LIG d   1      -3.906  91.465 117.025  0.00  0.00    -0.047 C 
ATOM      6  C   LIG d   1      -4.187  92.152 118.381  0.00  0.00     0.091 C 
ENDROOT
BRANCH   1   7
ATOM      7  O   LIG d   1      -6.010  92.839 119.867  0.00  0.00    -0.368 OA
BRANCH   7   8
ATOM      8  C   LIG d   1      -6.580  94.133 120.182  0.00  0.00     0.119 C 
BRANCH   8   9
ATOM      9  C   LIG d   1      -7.995  93.892 120.743  0.00  0.00     0.028 C 
ATOM     10  C   LIG d   1      -9.051  93.760 119.633  0.00  0.00     0.006 C 
ENDBRANCH   8   9
BRANCH   8  11
ATOM     11  C   LIG d   1      -6.782  94.975 118.919  0.00  0.00     0.028 C 
ATOM     12  C   LIG d   1      -6.614  96.481 119.173  0.00  0.00     0.006 C 
ENDBRANCH   8  11
ENDBRANCH   7   8
ENDBRANCH   1   7
BRANCH   6  13
ATOM     13  N   LIG d   1      -3.317  93.336 118.607  0.00  0.00    -0.311 N 
ATOM     14  C   LIG d   1      -2.157  93.280 119.258  0.00  0.00     0.210 C 
ATOM     15  C   LIG d   1      -1.428  94.620 119.397  0.00  0.00     0.109 C 
ATOM     16  O   LIG d   1      -1.646  92.242 119.705  0.00  0.00    -0.276 OA
ATOM     17  H   LIG d   1      -3.641  94.214 118.250  0.00  0.00     0.149 HD
ENDBRANCH   6  13
BRANCH   5  18
ATOM     18  N   LIG d   1      -2.547  90.899 116.934  0.00  0.00     0.381 N 
ATOM     19  H   LIG d   1      -2.025  91.139 117.753  0.00  0.00    -0.090 HD
ATOM     20  H   LIG d   1      -2.082  91.296 116.136  0.00  0.00    -0.090 HD
ATOM     21  H   LIG d   1      -2.596  89.908 116.840  0.00  0.00    -0.090 HD
ENDBRANCH   5  18
BRANCH   3  22
ATOM     22  C   LIG d   1      -7.216  90.030 116.317  0.00  0.00     0.382 C 
ATOM     23  O   LIG d   1      -7.426  88.813 116.536  0.00  0.00    -0.241 OA
ATOM     24  O   LIG d   1      -7.867  90.615 115.430  0.00  0.00    -0.241 OA
ENDBRANCH   3  22
TORSDOF 7
ENDMDL
MODEL 3
REMARK VINA RESULT:      -5.3      2.279      4.460
REMARK  7 active torsions:
REMARK  status: ('A' for Active; 'I' for Inactive)
REMARK    1  A    between atoms: C_2  and  C_3 
REMARK    2  A    between atoms: C_3  and  O_6 
REMARK    3  A    between atoms: C_3  and  C_4 
REMARK    4  A    between atoms: C_7  and  O_6 
REMARK    5  A    between atoms: C_9  and  C_10 
REMARK    6  A    between atoms: N_15  and  C_14 
REMARK    7  A    between atoms: N_20  and  C_19 
REMARK       I    between atoms: C_22  and  N_20 
ROOT
ATOM      1  C   LIG d   1      -5.631  91.541 119.008  0.00  0.00     0.161 C 
ATOM      2  C   LIG d   1      -5.803  90.655 117.932  0.00  0.00     0.016 C 
ATOM      3  C   LIG d   1      -6.677  90.904 116.850  0.00  0.00     0.038 C 
ATOM      4  C   LIG d   1      -7.331  92.136 116.694  0.00  0.00     0.028 C 
ATOM      5  C   LIG d   1      -7.579  92.861 118.012  0.00  0.00    -0.047 C 
ATOM      6  C   LIG d   1      -6.252  92.939 118.800  0.00  0.00     0.091 C 
ENDROOT
BRANCH   1   7
ATOM      7  O   LIG d   1      -4.230  91.658 119.327  0.00  0.00    -0.368 OA
BRANCH   7   8
ATOM      8  C   LIG d   1      -3.313  91.572 118.209  0.00  0.00     0.119 C 
BRANCH   8   9
ATOM      9  C   LIG d   1      -2.259  90.504 118.556  0.00  0.00     0.028 C 
ATOM     10  C   LIG d   1      -2.466  89.909 119.959  0.00  0.00     0.006 C 
ENDBRANCH   8   9
BRANCH   8  11
ATOM     11  C   LIG d   1      -2.527  92.875 118.032  0.00  0.00     0.028 C 
ATOM     12  C   LIG d   1      -2.596  93.785 119.269  0.00  0.00     0.006 C 
ENDBRANCH   8  11
ENDBRANCH   7   8
ENDBRANCH   1   7
BRANCH   6  13
ATOM     13  N   LIG d   1      -6.423  93.559 120.139  0.00  0.00    -0.311 N 
ATOM     14  C   LIG d   1      -6.211  94.852 120.381  0.00  0.00     0.210 C 
ATOM     15  C   LIG d   1      -6.426  95.281 121.836  0.00  0.00     0.109 C 
ATOM     16  O   LIG d   1      -5.897  95.690 119.523  0.00  0.00    -0.276 OA
ATOM     17  H   LIG d   1      -6.707  92.958 120.888  0.00  0.00     0.149 HD
ENDBRANCH   6  13
BRANCH   5  18
ATOM     18  N   LIG d   1      -8.141  94.187 117.692  0.00  0.00     0.381 N 
ATOM     19  H   LIG d   1      -8.974  94.080 117.148  0.00  0.00    -0.090 HD
ATOM     20  H   LIG d   1      -7.471  94.700 117.146  0.00  0.00    -0.090 HD
ATOM     21  H   LIG d   1      -8.345  94.683 118.532  0.00  0.00    -0.090 HD
ENDBRANCH   5  18
BRANCH   3  22
ATOM     22  C   LIG d   1      -6.936  89.900 115.929  0.00  0.00     0.382 C 
ATOM     23  O   LIG d   1      -8.098  89.743 115.483  0.00  0.00    -0.241 OA
ATOM     24  O   LIG d   1      -6.031  89.121 115.574  0.00  0.00    -0.241 OA
ENDBRANCH   3  22
TORSDOF 7
ENDMDL
MODEL 4
REMARK VINA RESULT:      -5.2      2.123      3.592
REMARK  7 active torsions:
REMARK  status: ('A' for Active; 'I' for Inactive)
REMARK    1  A    between atoms: C_2  and  C_3 
REMARK    2  A    between atoms: C_3  and  O_6 
REMARK    3  A    between atoms: C_3  and  C_4 
REMARK    4  A    between atoms: C_7  and  O_6 
REMARK    5  A    between atoms: C_9  and  C_10 
REMARK    6  A    between atoms: N_15  and  C_14 
REMARK    7  A    between atoms: N_20  and  C_19 
REMARK       I    between atoms: C_22  and  N_20 
ROOT
ATOM      1  C   LIG d   1      -4.048  92.414 118.107  0.00  0.00     0.161 C 
ATOM      2  C   LIG d   1      -5.385  92.830 118.216  0.00  0.00     0.016 C 
ATOM      3  C   LIG d   1      -6.451  92.216 117.519  0.00  0.00     0.038 C 
ATOM      4  C   LIG d   1      -6.271  91.040 116.776  0.00  0.00     0.028 C 
ATOM      5  C   LIG d   1      -4.856  90.878 116.231  0.00  0.00    -0.047 C 
ATOM      6  C   LIG d   1      -3.848  91.063 117.388  0.00  0.00     0.091 C 
ENDROOT
BRANCH   1   7
ATOM      7  O   LIG d   1      -3.438  92.382 119.412  0.00  0.00    -0.368 OA
BRANCH   7   8
ATOM      8  C   LIG d   1      -2.801  93.608 119.848  0.00  0.00     0.119 C 
BRANCH   8   9
ATOM      9  C   LIG d   1      -1.307  93.509 119.482  0.00  0.00     0.028 C 
ATOM     10  C   LIG d   1      -0.977  94.228 118.162  0.00  0.00     0.006 C 
ENDBRANCH   8   9
BRANCH   8  11
ATOM     11  C   LIG d   1      -2.837  93.743 121.373  0.00  0.00     0.028 C 
ATOM     12  C   LIG d   1      -3.959  92.915 122.018  0.00  0.00     0.006 C 
ENDBRANCH   8  11
ENDBRANCH   7   8
ENDBRANCH   1   7
BRANCH   6  13
ATOM     13  N   LIG d   1      -2.437  91.004 116.925  0.00  0.00    -0.311 N 
ATOM     14  C   LIG d   1      -1.472  90.374 117.593  0.00  0.00     0.210 C 
ATOM     15  C   LIG d   1      -0.084  90.452 116.951  0.00  0.00     0.109 C 
ATOM     16  O   LIG d   1      -1.641  89.730 118.640  0.00  0.00    -0.276 OA
ATOM     17  H   LIG d   1      -2.218  91.473 116.069  0.00  0.00     0.149 HD
ENDBRANCH   6  13
BRANCH   5  18
ATOM     18  N   LIG d   1      -4.772  89.549 115.597  0.00  0.00     0.381 N 
ATOM     19  H   LIG d   1      -4.887  89.637 114.607  0.00  0.00    -0.090 HD
ATOM     20  H   LIG d   1      -5.516  88.973 115.951  0.00  0.00    -0.090 HD
ATOM     21  H   LIG d   1      -3.892  89.129 115.800  0.00  0.00    -0.090 HD
ENDBRANCH   5  18
BRANCH   3  22
ATOM     22  C   LIG d   1      -7.707  92.803 117.529  0.00  0.00     0.382 C 
ATOM     23  O   LIG d   1      -8.234  93.175 116.453  0.00  0.00    -0.241 OA
ATOM     24  O   LIG d   1      -8.301  93.006 118.605  0.00  0.00    -0.241 OA
ENDBRANCH   3  22
TORSDOF 7
ENDMDL
MODEL 5
REMARK VINA RESULT:      -5.2      2.218      3.411
REMARK  7 active torsions:
REMARK  status: ('A' for Active; 'I' for Inactive)
REMARK    1  A    between atoms: C_2  and  C_3 
REMARK    2  A    between atoms: C_3  and  O_6 
REMARK    3  A    between atoms: C_3  and  C_4 
REMARK    4  A    between atoms: C_7  and  O_6 
REMARK    5  A    between atoms: C_9  and  C_10 
REMARK    6  A    between atoms: N_15  and  C_14 
REMARK    7  A    between atoms: N_20  and  C_19 
REMARK       I    between atoms: C_22  and  N_20 
ROOT
ATOM      1  C   LIG d   1      -4.619  93.018 118.719  0.00  0.00     0.161 C 
ATOM      2  C   LIG d   1      -5.938  93.500 118.717  0.00  0.00     0.016 C 
ATOM      3  C   LIG d   1      -6.910  93.104 117.770  0.00  0.00     0.038 C 
ATOM      4  C   LIG d   1      -6.669  92.077 116.845  0.00  0.00     0.028 C 
ATOM      5  C   LIG d   1      -5.196  91.920 116.485  0.00  0.00    -0.047 C 
ATOM      6  C   LIG d   1      -4.369  91.814 117.787  0.00  0.00     0.091 C 
ENDROOT
BRANCH   1   7
ATOM      7  O   LIG d   1      -4.217  92.700 120.066  0.00  0.00    -0.368 OA
BRANCH   7   8
ATOM      8  C   LIG d   1      -4.716  91.451 120.602  0.00  0.00     0.119 C 
BRANCH   8   9
ATOM      9  C   LIG d   1      -5.440  91.770 121.925  0.00  0.00     0.028 C 
ATOM     10  C   LIG d   1      -6.968  91.646 121.802  0.00  0.00     0.006 C 
ENDBRANCH   8   9
BRANCH   8  11
ATOM     11  C   LIG d   1      -3.568  90.511 120.985  0.00  0.00     0.028 C 
ATOM     12  C   LIG d   1      -2.237  91.250 121.193  0.00  0.00     0.006 C 
ENDBRANCH   8  11
ENDBRANCH   7   8
ENDBRANCH   1   7
BRANCH   6  13
ATOM     13  N   LIG d   1      -2.908  91.742 117.526  0.00  0.00    -0.311 N 
ATOM     14  C   LIG d   1      -2.222  90.600 117.501  0.00  0.00     0.210 C 
ATOM     15  C   LIG d   1      -0.722  90.753 117.234  0.00  0.00     0.109 C 
ATOM     16  O   LIG d   1      -2.721  89.473 117.642  0.00  0.00    -0.276 OA
ATOM     17  H   LIG d   1      -2.429  92.608 117.370  0.00  0.00     0.149 HD
ENDBRANCH   6  13
BRANCH   5  18
ATOM     18  N   LIG d   1      -5.072  90.729 115.623  0.00  0.00     0.381 N 
ATOM     19  H   LIG d   1      -5.509  89.945 116.064  0.00  0.00    -0.090 HD
ATOM     20  H   LIG d   1      -4.098  90.518 115.498  0.00  0.00    -0.090 HD
ATOM     21  H   LIG d   1      -5.498  90.902 114.739  0.00  0.00    -0.090 HD
ENDBRANCH   5  18
BRANCH   3  22
ATOM     22  C   LIG d   1      -8.127  93.767 117.716  0.00  0.00     0.382 C 
ATOM     23  O   LIG d   1      -8.871  93.630 116.715  0.00  0.00    -0.241 OA
ATOM     24  O   LIG d   1      -8.470  94.534 118.635  0.00  0.00    -0.241 OA
ENDBRANCH   3  22
TORSDOF 7
ENDMDL
MODEL 6
REMARK VINA RESULT:      -5.0      2.424      4.147
REMARK  7 active torsions:
REMARK  status: ('A' for Active; 'I' for Inactive)
REMARK    1  A    between atoms: C_2  and  C_3 
REMARK    2  A    between atoms: C_3  and  O_6 
REMARK    3  A    between atoms: C_3  and  C_4 
REMARK    4  A    between atoms: C_7  and  O_6 
REMARK    5  A    between atoms: C_9  and  C_10 
REMARK    6  A    between atoms: N_15  and  C_14 
REMARK    7  A    between atoms: N_20  and  C_19 
REMARK       I    between atoms: C_22  and  N_20 
ROOT
ATOM      1  C   LIG d   1      -5.509  91.992 118.979  0.00  0.00     0.161 C 
ATOM      2  C   LIG d   1      -5.591  90.936 118.056  0.00  0.00     0.016 C 
ATOM      3  C   LIG d   1      -6.547  90.883 117.016  0.00  0.00     0.038 C 
ATOM      4  C   LIG d   1      -7.397  91.964 116.734  0.00  0.00     0.028 C 
ATOM      5  C   LIG d   1      -7.691  92.836 117.950  0.00  0.00    -0.047 C 
ATOM      6  C   LIG d   1      -6.355  93.232 118.619  0.00  0.00     0.091 C 
ENDROOT
BRANCH   1   7
ATOM      7  O   LIG d   1      -4.131  92.366 119.174  0.00  0.00    -0.368 OA
BRANCH   7   8
ATOM      8  C   LIG d   1      -3.580  92.104 120.488  0.00  0.00     0.119 C 
BRANCH   8   9
ATOM      9  C   LIG d   1      -2.965  93.420 121.003  0.00  0.00     0.028 C 
ATOM     10  C   LIG d   1      -2.929  94.513 119.921  0.00  0.00     0.006 C 
ENDBRANCH   8   9
BRANCH   8  11
ATOM     11  C   LIG d   1      -2.414  91.113 120.415  0.00  0.00     0.028 C 
ATOM     12  C   LIG d   1      -2.779  89.723 120.959  0.00  0.00     0.006 C 
ENDBRANCH   8  11
ENDBRANCH   7   8
ENDBRANCH   1   7
BRANCH   6  13
ATOM     13  N   LIG d   1      -6.556  94.016 119.866  0.00  0.00    -0.311 N 
ATOM     14  C   LIG d   1      -6.567  95.347 119.900  0.00  0.00     0.210 C 
ATOM     15  C   LIG d   1      -6.769  95.956 121.291  0.00  0.00     0.109 C 
ATOM     16  O   LIG d   1      -6.460  96.082 118.907  0.00  0.00    -0.276 OA
ATOM     17  H   LIG d   1      -6.682  93.500 120.714  0.00  0.00     0.149 HD
ENDBRANCH   6  13
BRANCH   5  18
ATOM     18  N   LIG d   1      -8.473  93.998 117.487  0.00  0.00     0.381 N 
ATOM     19  H   LIG d   1      -7.866  94.661 117.048  0.00  0.00    -0.090 HD
ATOM     20  H   LIG d   1      -8.901  94.439 118.281  0.00  0.00    -0.090 HD
ATOM     21  H   LIG d   1      -9.174  93.702 116.843  0.00  0.00    -0.090 HD
ENDBRANCH   5  18
BRANCH   3  22
ATOM     22  C   LIG d   1      -6.688  89.723 116.270  0.00  0.00     0.382 C 
ATOM     23  O   LIG d   1      -5.807  89.403 115.436  0.00  0.00    -0.241 OA
ATOM     24  O   LIG d   1      -7.706  89.016 116.388  0.00  0.00    -0.241 OA
ENDBRANCH   3  22
TORSDOF 7
ENDMDL
MODEL 7
REMARK VINA RESULT:      -5.0      2.324      4.755
REMARK  7 active torsions:
REMARK  status: ('A' for Active; 'I' for Inactive)
REMARK    1  A    between atoms: C_2  and  C_3 
REMARK    2  A    between atoms: C_3  and  O_6 
REMARK    3  A    between atoms: C_3  and  C_4 
REMARK    4  A    between atoms: C_7  and  O_6 
REMARK    5  A    between atoms: C_9  and  C_10 
REMARK    6  A    between atoms: N_15  and  C_14 
REMARK    7  A    between atoms: N_20  and  C_19 
REMARK       I    between atoms: C_22  and  N_20 
ROOT
ATOM      1  C   LIG d   1      -5.221  92.690 118.701  0.00  0.00     0.161 C 
ATOM      2  C   LIG d   1      -6.425  93.249 118.242  0.00  0.00     0.016 C 
ATOM      3  C   LIG d   1      -6.919  94.500 118.678  0.00  0.00     0.038 C 
ATOM      4  C   LIG d   1      -6.161  95.351 119.496  0.00  0.00     0.028 C 
ATOM      5  C   LIG d   1      -5.167  94.611 120.384  0.00  0.00    -0.047 C 
ATOM      6  C   LIG d   1      -4.327  93.654 119.508  0.00  0.00     0.091 C 
ENDROOT
BRANCH   1   7
ATOM      7  O   LIG d   1      -4.486  92.135 117.592  0.00  0.00    -0.368 OA
BRANCH   7   8
ATOM      8  C   LIG d   1      -4.700  90.727 117.327  0.00  0.00     0.119 C 
BRANCH   8   9
ATOM      9  C   LIG d   1      -3.384  89.990 117.643  0.00  0.00     0.028 C 
ATOM     10  C   LIG d   1      -3.361  89.415 119.069  0.00  0.00     0.006 C 
ENDBRANCH   8   9
BRANCH   8  11
ATOM     11  C   LIG d   1      -4.959  90.474 115.838  0.00  0.00     0.028 C 
ATOM     12  C   LIG d   1      -6.364  89.913 115.565  0.00  0.00     0.006 C 
ENDBRANCH   8  11
ENDBRANCH   7   8
ENDBRANCH   1   7
BRANCH   6  13
ATOM     13  N   LIG d   1      -3.386  92.830 120.311  0.00  0.00    -0.311 N 
ATOM     14  C   LIG d   1      -2.076  92.774 120.077  0.00  0.00     0.210 C 
ATOM     15  C   LIG d   1      -1.291  91.847 121.009  0.00  0.00     0.109 C 
ATOM     16  O   LIG d   1      -1.485  93.430 119.205  0.00  0.00    -0.276 OA
ATOM     17  H   LIG d   1      -3.777  92.289 121.058  0.00  0.00     0.149 HD
ENDBRANCH   6  13
BRANCH   5  18
ATOM     18  N   LIG d   1      -4.351  95.624 121.080  0.00  0.00     0.381 N 
ATOM     19  H   LIG d   1      -3.923  95.218 121.888  0.00  0.00    -0.090 HD
ATOM     20  H   LIG d   1      -4.949  96.373 121.382  0.00  0.00    -0.090 HD
ATOM     21  H   LIG d   1      -3.650  95.977 120.466  0.00  0.00    -0.090 HD
ENDBRANCH   5  18
BRANCH   3  22
ATOM     22  C   LIG d   1      -8.201  94.893 118.328  0.00  0.00     0.382 C 
ATOM     23  O   LIG d   1      -8.527  96.103 118.394  0.00  0.00    -0.241 OA
ATOM     24  O   LIG d   1      -9.051  94.047 117.989  0.00  0.00    -0.241 OA
ENDBRANCH   3  22
TORSDOF 7
ENDMDL
MODEL 8
REMARK VINA RESULT:      -4.8      2.299      4.508
REMARK  7 active torsions:
REMARK  status: ('A' for Active; 'I' for Inactive)
REMARK    1  A    between atoms: C_2  and  C_3 
REMARK    2  A    between atoms: C_3  and  O_6 
REMARK    3  A    between atoms: C_3  and  C_4 
REMARK    4  A    between atoms: C_7  and  O_6 
REMARK    5  A    between atoms: C_9  and  C_10 
REMARK    6  A    between atoms: N_15  and  C_14 
REMARK    7  A    between atoms: N_20  and  C_19 
REMARK       I    between atoms: C_22  and  N_20 
ROOT
ATOM      1  C   LIG d   1      -4.227  91.477 118.901  0.00  0.00     0.161 C 
ATOM      2  C   LIG d   1      -4.840  90.700 117.905  0.00  0.00     0.016 C 
ATOM      3  C   LIG d   1      -5.947  91.143 117.144  0.00  0.00     0.038 C 
ATOM      4  C   LIG d   1      -6.424  92.459 117.226  0.00  0.00     0.028 C 
ATOM      5  C   LIG d   1      -6.160  93.117 118.576  0.00  0.00    -0.047 C 
ATOM      6  C   LIG d   1      -4.663  92.957 118.927  0.00  0.00     0.091 C 
ENDROOT
BRANCH   1   7
ATOM      7  O   LIG d   1      -2.793  91.379 118.784  0.00  0.00    -0.368 OA
BRANCH   7   8
ATOM      8  C   LIG d   1      -2.233  90.050 118.917  0.00  0.00     0.119 C 
BRANCH   8   9
ATOM      9  C   LIG d   1      -1.209  90.092 120.068  0.00  0.00     0.028 C 
ATOM     10  C   LIG d   1      -1.233  91.430 120.827  0.00  0.00     0.006 C 
ENDBRANCH   8   9
BRANCH   8  11
ATOM     11  C   LIG d   1      -1.429  89.658 117.673  0.00  0.00     0.028 C 
ATOM     12  C   LIG d   1      -0.475  90.768 117.206  0.00  0.00     0.006 C 
ENDBRANCH   8  11
ENDBRANCH   7   8
ENDBRANCH   1   7
BRANCH   6  13
ATOM     13  N   LIG d   1      -4.335  93.499 120.272  0.00  0.00    -0.311 N 
ATOM     14  C   LIG d   1      -3.434  94.459 120.476  0.00  0.00     0.210 C 
ATOM     15  C   LIG d   1      -3.235  94.857 121.942  0.00  0.00     0.109 C 
ATOM     16  O   LIG d   1      -2.805  95.040 119.580  0.00  0.00    -0.276 OA
ATOM     17  H   LIG d   1      -4.822  93.106 121.053  0.00  0.00     0.149 HD
ENDBRANCH   6  13
BRANCH   5  18
ATOM     18  N   LIG d   1      -6.583  94.526 118.476  0.00  0.00     0.381 N 
ATOM     19  H   LIG d   1      -7.276  94.622 117.761  0.00  0.00    -0.090 HD
ATOM     20  H   LIG d   1      -5.789  95.087 118.223  0.00  0.00    -0.090 HD
ATOM     21  H   LIG d   1      -6.952  94.834 119.349  0.00  0.00    -0.090 HD
ENDBRANCH   5  18
BRANCH   3  22
ATOM     22  C   LIG d   1      -6.614  90.250 116.319  0.00  0.00     0.382 C 
ATOM     23  O   LIG d   1      -6.052  89.188 115.960  0.00  0.00    -0.241 OA
ATOM     24  O   LIG d   1      -7.755  90.515 115.894  0.00  0.00    -0.241 OA
ENDBRANCH   3  22
TORSDOF 7
ENDMDL
MODEL 9
REMARK VINA RESULT:      -4.7      1.674      4.879
REMARK  7 active torsions:
REMARK  status: ('A' for Active; 'I' for Inactive)
REMARK    1  A    between atoms: C_2  and  C_3 
REMARK    2  A    between atoms: C_3  and  O_6 
REMARK    3  A    between atoms: C_3  and  C_4 
REMARK    4  A    between atoms: C_7  and  O_6 
REMARK    5  A    between atoms: C_9  and  C_10 
REMARK    6  A    between atoms: N_15  and  C_14 
REMARK    7  A    between atoms: N_20  and  C_19 
REMARK       I    between atoms: C_22  and  N_20 
ROOT
ATOM      1  C   LIG d   1      -5.770  91.721 119.494  0.00  0.00     0.161 C 
ATOM      2  C   LIG d   1      -4.697  92.349 120.149  0.00  0.00     0.016 C 
ATOM      3  C   LIG d   1      -3.403  92.461 119.593  0.00  0.00     0.038 C 
ATOM      4  C   LIG d   1      -3.129  92.082 118.270  0.00  0.00     0.028 C 
ATOM      5  C   LIG d   1      -4.053  90.985 117.750  0.00  0.00    -0.047 C 
ATOM      6  C   LIG d   1      -5.519  91.402 118.005  0.00  0.00     0.091 C 
ENDROOT
BRANCH   1   7
ATOM      7  O   LIG d   1      -6.964  92.514 119.642  0.00  0.00    -0.368 OA
BRANCH   7   8
ATOM      8  C   LIG d   1      -6.770  93.945 119.759  0.00  0.00     0.119 C 
BRANCH   8   9
ATOM      9  C   LIG d   1      -7.638  94.436 120.934  0.00  0.00     0.028 C 
ATOM     10  C   LIG d   1      -6.797  95.032 122.075  0.00  0.00     0.006 C 
ENDBRANCH   8   9
BRANCH   8  11
ATOM     11  C   LIG d   1      -7.301  94.682 118.527  0.00  0.00     0.028 C 
ATOM     12  C   LIG d   1      -8.356  93.872 117.756  0.00  0.00     0.006 C 
ENDBRANCH   8  11
ENDBRANCH   7   8
ENDBRANCH   1   7
BRANCH   6  13
ATOM     13  N   LIG d   1      -6.486  90.347 117.603  0.00  0.00    -0.311 N 
ATOM     14  C   LIG d   1      -7.069  90.304 116.406  0.00  0.00     0.210 C 
ATOM     15  C   LIG d   1      -8.049  89.144 116.205  0.00  0.00     0.109 C 
ATOM     16  O   LIG d   1      -6.844  91.099 115.481  0.00  0.00    -0.276 OA
ATOM     17  H   LIG d   1      -6.703  89.644 118.282  0.00  0.00     0.149 HD
ENDBRANCH   6  13
BRANCH   5  18
ATOM     18  N   LIG d   1      -3.748  90.786 116.321  0.00  0.00     0.381 N 
ATOM     19  H   LIG d   1      -4.547  90.405 115.854  0.00  0.00    -0.090 HD
ATOM     20  H   LIG d   1      -2.992  90.130 116.238  0.00  0.00    -0.090 HD
ATOM     21  H   LIG d   1      -3.493  91.654 115.903  0.00  0.00    -0.090 HD
ENDBRANCH   5  18
BRANCH   3  22
ATOM     22  C   LIG d   1      -2.355  92.919 120.376  0.00  0.00     0.382 C 
ATOM     23  O   LIG d   1      -2.316  94.122 120.730  0.00  0.00    -0.241 OA
ATOM     24  O   LIG d   1      -1.425  92.155 120.697  0.00  0.00    -0.241 OA
ENDBRANCH   3  22
TORSDOF 7
ENDMDL
