MODEL 1
REMARK VINA RESULT:      -5.2      0.000      0.000
REMARK  7 active torsions:
REMARK  status: ('A' for Active; 'I' for Inactive)
REMARK    1  A    between atoms: C_2  and  C_3 
REMARK    2  A    between atoms: C_3  and  O_6 
REMARK    3  A    between atoms: C_3  and  C_4 
REMARK    4  A    between atoms: C_7  and  O_6 
REMARK    5  A    between atoms: C_9  and  C_10 
REMARK    6  A    between atoms: N_15  and  C_14 
REMARK    7  A    between atoms: N_20  and  C_19 
REMARK       I    between atoms: C_22  and  N_20 
ROOT
ATOM      1  C   LIG d   1      -6.440  92.017 118.711  0.00  0.00     0.161 C 
ATOM      2  C   LIG d   1      -7.649  92.727 118.641  0.00  0.00     0.016 C 
ATOM      3  C   LIG d   1      -7.725  94.139 118.652  0.00  0.00     0.038 C 
ATOM      4  C   LIG d   1      -6.578  94.943 118.583  0.00  0.00     0.028 C 
ATOM      5  C   LIG d   1      -5.334  94.276 119.161  0.00  0.00    -0.047 C 
ATOM      6  C   LIG d   1      -5.173  92.877 118.523  0.00  0.00     0.091 C 
ENDROOT
BRANCH   1   7
ATOM      7  O   LIG d   1      -6.454  90.932 117.762  0.00  0.00    -0.368 OA
BRANCH   7   8
ATOM      8  C   LIG d   1      -6.324  91.304 116.367  0.00  0.00     0.119 C 
BRANCH   8   9
ATOM      9  C   LIG d   1      -7.486  90.643 115.602  0.00  0.00     0.028 C 
ATOM     10  C   LIG d   1      -8.147  89.508 116.403  0.00  0.00     0.006 C 
ENDBRANCH   8   9
BRANCH   8  11
ATOM     11  C   LIG d   1      -5.048  90.720 115.752  0.00  0.00     0.028 C 
ATOM     12  C   LIG d   1      -4.473  89.552 116.568  0.00  0.00     0.006 C 
ENDBRANCH   8  11
ENDBRANCH   7   8
ENDBRANCH   1   7
BRANCH   6  13
ATOM     13  N   LIG d   1      -4.027  92.122 119.095  0.00  0.00    -0.311 N 
ATOM     14  C   LIG d   1      -2.810  92.118 118.556  0.00  0.00     0.210 C 
ATOM     15  C   LIG d   1      -1.779  91.258 119.294  0.00  0.00     0.109 C 
ATOM     16  O   LIG d   1      -2.477  92.769 117.554  0.00  0.00    -0.276 OA
ATOM     17  H   LIG d   1      -4.201  91.591 119.926  0.00  0.00     0.149 HD
ENDBRANCH   6  13
BRANCH   5  18
ATOM     18  N   LIG d   1      -4.188  95.167 118.899  0.00  0.00     0.381 N 
ATOM     19  H   LIG d   1      -4.341  96.054 119.336  0.00  0.00    -0.090 HD
ATOM     20  H   LIG d   1      -4.110  95.313 117.908  0.00  0.00    -0.090 HD
ATOM     21  H   LIG d   1      -3.350  94.757 119.249  0.00  0.00    -0.090 HD
ENDBRANCH   5  18
BRANCH   3  22
ATOM     22  C   LIG d   1      -8.958  94.760 118.775  0.00  0.00     0.382 C 
ATOM     23  O   LIG d   1      -9.956  94.103 119.159  0.00  0.00    -0.241 OA
ATOM     24  O   LIG d   1      -9.096  95.958 118.464  0.00  0.00    -0.241 OA
ENDBRANCH   3  22
TORSDOF 7
ENDMDL
MODEL 2
REMARK VINA RESULT:      -5.1      2.027      4.796
REMARK  7 active torsions:
REMARK  status: ('A' for Active; 'I' for Inactive)
REMARK    1  A    between atoms: C_2  and  C_3 
REMARK    2  A    between atoms: C_3  and  O_6 
REMARK    3  A    between atoms: C_3  and  C_4 
REMARK    4  A    between atoms: C_7  and  O_6 
REMARK    5  A    between atoms: C_9  and  C_10 
REMARK    6  A    between atoms: N_15  and  C_14 
REMARK    7  A    between atoms: N_20  and  C_19 
REMARK       I    between atoms: C_22  and  N_20 
ROOT
ATOM      1  C   LIG d   1      -5.318  92.855 117.706  0.00  0.00     0.161 C 
ATOM      2  C   LIG d   1      -6.448  92.102 117.345  0.00  0.00     0.016 C 
ATOM      3  C   LIG d   1      -6.384  90.746 116.948  0.00  0.00     0.038 C 
ATOM      4  C   LIG d   1      -5.197  90.004 117.031  0.00  0.00     0.028 C 
ATOM      5  C   LIG d   1      -3.939  90.857 116.908  0.00  0.00    -0.047 C 
ATOM      6  C   LIG d   1      -4.029  92.031 117.909  0.00  0.00     0.091 C 
ENDROOT
BRANCH   1   7
ATOM      7  O   LIG d   1      -5.607  93.634 118.884  0.00  0.00    -0.368 OA
BRANCH   7   8
ATOM      8  C   LIG d   1      -6.006  95.008 118.657  0.00  0.00     0.119 C 
BRANCH   8   9
ATOM      9  C   LIG d   1      -4.992  95.911 119.386  0.00  0.00     0.028 C 
ATOM     10  C   LIG d   1      -4.469  95.276 120.685  0.00  0.00     0.006 C 
ENDBRANCH   8   9
BRANCH   8  11
ATOM     11  C   LIG d   1      -7.359  95.310 119.309  0.00  0.00     0.028 C 
ATOM     12  C   LIG d   1      -8.541  95.115 118.346  0.00  0.00     0.006 C 
ENDBRANCH   8  11
ENDBRANCH   7   8
ENDBRANCH   1   7
BRANCH   6  13
ATOM     13  N   LIG d   1      -2.877  92.963 117.795  0.00  0.00    -0.311 N 
ATOM     14  C   LIG d   1      -2.057  93.243 118.807  0.00  0.00     0.210 C 
ATOM     15  C   LIG d   1      -0.946  94.245 118.481  0.00  0.00     0.109 C 
ATOM     16  O   LIG d   1      -2.126  92.731 119.935  0.00  0.00    -0.276 OA
ATOM     17  H   LIG d   1      -2.729  93.399 116.906  0.00  0.00     0.149 HD
ENDBRANCH   6  13
BRANCH   5  18
ATOM     18  N   LIG d   1      -2.779  89.979 117.150  0.00  0.00     0.381 N 
ATOM     19  H   LIG d   1      -2.054  90.494 117.608  0.00  0.00    -0.090 HD
ATOM     20  H   LIG d   1      -2.426  89.655 116.266  0.00  0.00    -0.090 HD
ATOM     21  H   LIG d   1      -3.050  89.202 117.712  0.00  0.00    -0.090 HD
ENDBRANCH   5  18
BRANCH   3  22
ATOM     22  C   LIG d   1      -7.511  90.130 116.424  0.00  0.00     0.382 C 
ATOM     23  O   LIG d   1      -7.928  89.057 116.923  0.00  0.00    -0.241 OA
ATOM     24  O   LIG d   1      -8.088  90.610 115.430  0.00  0.00    -0.241 OA
ENDBRANCH   3  22
TORSDOF 7
ENDMDL
MODEL 3
REMARK VINA RESULT:      -5.0      2.065      4.470
REMARK  7 active torsions:
REMARK  status: ('A' for Active; 'I' for Inactive)
REMARK    1  A    between atoms: C_2  and  C_3 
REMARK    2  A    between atoms: C_3  and  O_6 
REMARK    3  A    between atoms: C_3  and  C_4 
REMARK    4  A    between atoms: C_7  and  O_6 
REMARK    5  A    between atoms: C_9  and  C_10 
REMARK    6  A    between atoms: N_15  and  C_14 
REMARK    7  A    between atoms: N_20  and  C_19 
REMARK       I    between atoms: C_22  and  N_20 
ROOT
ATOM      1  C   LIG d   1      -5.174  92.817 117.796  0.00  0.00     0.161 C 
ATOM      2  C   LIG d   1      -6.312  92.103 117.388  0.00  0.00     0.016 C 
ATOM      3  C   LIG d   1      -6.264  90.778 116.895  0.00  0.00     0.038 C 
ATOM      4  C   LIG d   1      -5.084  90.020 116.920  0.00  0.00     0.028 C 
ATOM      5  C   LIG d   1      -3.818  90.868 116.852  0.00  0.00    -0.047 C 
ATOM      6  C   LIG d   1      -3.892  91.969 117.934  0.00  0.00     0.091 C 
ENDROOT
BRANCH   1   7
ATOM      7  O   LIG d   1      -5.449  93.513 119.027  0.00  0.00    -0.368 OA
BRANCH   7   8
ATOM      8  C   LIG d   1      -6.839  93.564 119.434  0.00  0.00     0.119 C 
BRANCH   8   9
ATOM      9  C   LIG d   1      -7.315  95.021 119.274  0.00  0.00     0.028 C 
ATOM     10  C   LIG d   1      -8.544  95.140 118.357  0.00  0.00     0.006 C 
ENDBRANCH   8   9
BRANCH   8  11
ATOM     11  C   LIG d   1      -6.996  93.247 120.924  0.00  0.00     0.028 C 
ATOM     12  C   LIG d   1      -6.128  92.061 121.375  0.00  0.00     0.006 C 
ENDBRANCH   8  11
ENDBRANCH   7   8
ENDBRANCH   1   7
BRANCH   6  13
ATOM     13  N   LIG d   1      -2.731  92.895 117.881  0.00  0.00    -0.311 N 
ATOM     14  C   LIG d   1      -1.966  93.172 118.935  0.00  0.00     0.210 C 
ATOM     15  C   LIG d   1      -0.833  94.168 118.668  0.00  0.00     0.109 C 
ATOM     16  O   LIG d   1      -2.098  92.663 120.058  0.00  0.00    -0.276 OA
ATOM     17  H   LIG d   1      -2.534  93.328 117.000  0.00  0.00     0.149 HD
ENDBRANCH   6  13
BRANCH   5  18
ATOM     18  N   LIG d   1      -2.666  89.963 117.025  0.00  0.00     0.381 N 
ATOM     19  H   LIG d   1      -2.220  89.809 116.143  0.00  0.00    -0.090 HD
ATOM     20  H   LIG d   1      -2.996  89.079 117.370  0.00  0.00    -0.090 HD
ATOM     21  H   LIG d   1      -2.017  90.357 117.669  0.00  0.00    -0.090 HD
ENDBRANCH   5  18
BRANCH   3  22
ATOM     22  C   LIG d   1      -7.399  90.212 116.334  0.00  0.00     0.382 C 
ATOM     23  O   LIG d   1      -8.021  90.820 115.430  0.00  0.00    -0.241 OA
ATOM     24  O   LIG d   1      -7.833  89.122 116.751  0.00  0.00    -0.241 OA
ENDBRANCH   3  22
TORSDOF 7
ENDMDL
MODEL 4
REMARK VINA RESULT:      -4.7      2.526      4.446
REMARK  7 active torsions:
REMARK  status: ('A' for Active; 'I' for Inactive)
REMARK    1  A    between atoms: C_2  and  C_3 
REMARK    2  A    between atoms: C_3  and  O_6 
REMARK    3  A    between atoms: C_3  and  C_4 
REMARK    4  A    between atoms: C_7  and  O_6 
REMARK    5  A    between atoms: C_9  and  C_10 
REMARK    6  A    between atoms: N_15  and  C_14 
REMARK    7  A    between atoms: N_20  and  C_19 
REMARK       I    between atoms: C_22  and  N_20 
ROOT
ATOM      1  C   LIG d   1      -3.866  90.735 118.065  0.00  0.00     0.161 C 
ATOM      2  C   LIG d   1      -4.906  90.245 117.259  0.00  0.00     0.016 C 
ATOM      3  C   LIG d   1      -6.002  91.033 116.837  0.00  0.00     0.038 C 
ATOM      4  C   LIG d   1      -6.053  92.416 117.070  0.00  0.00     0.028 C 
ATOM      5  C   LIG d   1      -5.278  92.850 118.309  0.00  0.00    -0.047 C 
ATOM      6  C   LIG d   1      -3.848  92.268 118.236  0.00  0.00     0.091 C 
ENDROOT
BRANCH   1   7
ATOM      7  O   LIG d   1      -2.597  90.272 117.560  0.00  0.00    -0.368 OA
BRANCH   7   8
ATOM      8  C   LIG d   1      -1.821  89.439 118.455  0.00  0.00     0.119 C 
BRANCH   8   9
ATOM      9  C   LIG d   1      -0.334  89.764 118.217  0.00  0.00     0.028 C 
ATOM     10  C   LIG d   1      -0.125  91.181 117.656  0.00  0.00     0.006 C 
ENDBRANCH   8   9
BRANCH   8  11
ATOM     11  C   LIG d   1      -1.972  87.955 118.107  0.00  0.00     0.028 C 
ATOM     12  C   LIG d   1      -2.243  87.078 119.340  0.00  0.00     0.006 C 
ENDBRANCH   8  11
ENDBRANCH   7   8
ENDBRANCH   1   7
BRANCH   6  13
ATOM     13  N   LIG d   1      -3.048  92.576 119.451  0.00  0.00    -0.311 N 
ATOM     14  C   LIG d   1      -2.229  93.622 119.543  0.00  0.00     0.210 C 
ATOM     15  C   LIG d   1      -1.484  93.743 120.876  0.00  0.00     0.109 C 
ATOM     16  O   LIG d   1      -2.073  94.478 118.660  0.00  0.00    -0.276 OA
ATOM     17  H   LIG d   1      -3.138  91.949 120.227  0.00  0.00     0.149 HD
ENDBRANCH   6  13
BRANCH   5  18
ATOM     18  N   LIG d   1      -5.301  94.324 118.355  0.00  0.00     0.381 N 
ATOM     19  H   LIG d   1      -6.235  94.653 118.214  0.00  0.00    -0.090 HD
ATOM     20  H   LIG d   1      -4.726  94.681 117.612  0.00  0.00    -0.090 HD
ATOM     21  H   LIG d   1      -4.957  94.644 119.234  0.00  0.00    -0.090 HD
ENDBRANCH   5  18
BRANCH   3  22
ATOM     22  C   LIG d   1      -7.081  90.431 116.208  0.00  0.00     0.382 C 
ATOM     23  O   LIG d   1      -7.810  91.099 115.437  0.00  0.00    -0.241 OA
ATOM     24  O   LIG d   1      -7.360  89.239 116.438  0.00  0.00    -0.241 OA
ENDBRANCH   3  22
TORSDOF 7
ENDMDL
MODEL 5
REMARK VINA RESULT:      -4.6      2.194      5.028
REMARK  7 active torsions:
REMARK  status: ('A' for Active; 'I' for Inactive)
REMARK    1  A    between atoms: C_2  and  C_3 
REMARK    2  A    between atoms: C_3  and  O_6 
REMARK    3  A    between atoms: C_3  and  C_4 
REMARK    4  A    between atoms: C_7  and  O_6 
REMARK    5  A    between atoms: C_9  and  C_10 
REMARK    6  A    between atoms: N_15  and  C_14 
REMARK    7  A    between atoms: N_20  and  C_19 
REMARK       I    between atoms: C_22  and  N_20 
ROOT
ATOM      1  C   LIG d   1      -5.399  91.807 119.251  0.00  0.00     0.161 C 
ATOM      2  C   LIG d   1      -5.499  90.809 118.268  0.00  0.00     0.016 C 
ATOM      3  C   LIG d   1      -6.384  90.886 117.168  0.00  0.00     0.038 C 
ATOM      4  C   LIG d   1      -7.125  92.045 116.892  0.00  0.00     0.028 C 
ATOM      5  C   LIG d   1      -7.433  92.876 118.133  0.00  0.00    -0.047 C 
ATOM      6  C   LIG d   1      -6.118  93.128 118.907  0.00  0.00     0.091 C 
ENDROOT
BRANCH   1   7
ATOM      7  O   LIG d   1      -4.012  92.056 119.554  0.00  0.00    -0.368 OA
BRANCH   7   8
ATOM      8  C   LIG d   1      -3.382  93.133 118.817  0.00  0.00     0.119 C 
BRANCH   8   9
ATOM      9  C   LIG d   1      -2.341  92.501 117.873  0.00  0.00     0.028 C 
ATOM     10  C   LIG d   1      -1.721  91.220 118.456  0.00  0.00     0.006 C 
ENDBRANCH   8   9
BRANCH   8  11
ATOM     11  C   LIG d   1      -2.583  94.051 119.746  0.00  0.00     0.028 C 
ATOM     12  C   LIG d   1      -2.653  95.529 119.329  0.00  0.00     0.006 C 
ENDBRANCH   8  11
ENDBRANCH   7   8
ENDBRANCH   1   7
BRANCH   6  13
ATOM     13  N   LIG d   1      -6.342  93.863 120.179  0.00  0.00    -0.311 N 
ATOM     14  C   LIG d   1      -6.293  95.191 120.277  0.00  0.00     0.210 C 
ATOM     15  C   LIG d   1      -6.532  95.744 121.685  0.00  0.00     0.109 C 
ATOM     16  O   LIG d   1      -6.106  95.964 119.325  0.00  0.00    -0.276 OA
ATOM     17  H   LIG d   1      -6.530  93.315 120.995  0.00  0.00     0.149 HD
ENDBRANCH   6  13
BRANCH   5  18
ATOM     18  N   LIG d   1      -8.087  94.120 117.685  0.00  0.00     0.381 N 
ATOM     19  H   LIG d   1      -7.909  94.852 118.343  0.00  0.00    -0.090 HD
ATOM     20  H   LIG d   1      -9.080  93.968 117.643  0.00  0.00    -0.090 HD
ATOM     21  H   LIG d   1      -7.745  94.381 116.786  0.00  0.00    -0.090 HD
ENDBRANCH   5  18
BRANCH   3  22
ATOM     22  C   LIG d   1      -6.564  89.780 116.351  0.00  0.00     0.382 C 
ATOM     23  O   LIG d   1      -5.645  89.414 115.579  0.00  0.00    -0.241 OA
ATOM     24  O   LIG d   1      -7.650  89.169 116.345  0.00  0.00    -0.241 OA
ENDBRANCH   3  22
TORSDOF 7
ENDMDL
MODEL 6
REMARK VINA RESULT:      -4.6      2.158      5.172
REMARK  7 active torsions:
REMARK  status: ('A' for Active; 'I' for Inactive)
REMARK    1  A    between atoms: C_2  and  C_3 
REMARK    2  A    between atoms: C_3  and  O_6 
REMARK    3  A    between atoms: C_3  and  C_4 
REMARK    4  A    between atoms: C_7  and  O_6 
REMARK    5  A    between atoms: C_9  and  C_10 
REMARK    6  A    between atoms: N_15  and  C_14 
REMARK    7  A    between atoms: N_20  and  C_19 
REMARK       I    between atoms: C_22  and  N_20 
ROOT
ATOM      1  C   LIG d   1      -4.659  92.324 118.546  0.00  0.00     0.161 C 
ATOM      2  C   LIG d   1      -4.778  91.253 117.644  0.00  0.00     0.016 C 
ATOM      3  C   LIG d   1      -5.896  91.068 116.800  0.00  0.00     0.038 C 
ATOM      4  C   LIG d   1      -6.911  92.031 116.691  0.00  0.00     0.028 C 
ATOM      5  C   LIG d   1      -7.081  92.876 117.949  0.00  0.00    -0.047 C 
ATOM      6  C   LIG d   1      -5.704  93.444 118.362  0.00  0.00     0.091 C 
ENDROOT
BRANCH   1   7
ATOM      7  O   LIG d   1      -3.325  92.868 118.485  0.00  0.00    -0.368 OA
BRANCH   7   8
ATOM      8  C   LIG d   1      -2.506  92.681 119.666  0.00  0.00     0.119 C 
BRANCH   8   9
ATOM      9  C   LIG d   1      -2.226  94.075 120.260  0.00  0.00     0.028 C 
ATOM     10  C   LIG d   1      -1.958  95.132 119.175  0.00  0.00     0.006 C 
ENDBRANCH   8   9
BRANCH   8  11
ATOM     11  C   LIG d   1      -1.132  92.110 119.306  0.00  0.00     0.028 C 
ATOM     12  C   LIG d   1      -1.177  91.167 118.094  0.00  0.00     0.006 C 
ENDBRANCH   8  11
ENDBRANCH   7   8
ENDBRANCH   1   7
BRANCH   6  13
ATOM     13  N   LIG d   1      -5.766  94.215 119.631  0.00  0.00    -0.311 N 
ATOM     14  C   LIG d   1      -5.574  95.531 119.699  0.00  0.00     0.210 C 
ATOM     15  C   LIG d   1      -5.662  96.125 121.109  0.00  0.00     0.109 C 
ATOM     16  O   LIG d   1      -5.371  96.268 118.723  0.00  0.00    -0.276 OA
ATOM     17  H   LIG d   1      -5.956  93.700 120.468  0.00  0.00     0.149 HD
ENDBRANCH   6  13
BRANCH   5  18
ATOM     18  N   LIG d   1      -8.073  93.926 117.649  0.00  0.00     0.381 N 
ATOM     19  H   LIG d   1      -7.868  94.748 118.181  0.00  0.00    -0.090 HD
ATOM     20  H   LIG d   1      -8.984  93.598 117.915  0.00  0.00    -0.090 HD
ATOM     21  H   LIG d   1      -8.059  94.140 116.676  0.00  0.00    -0.090 HD
ENDBRANCH   5  18
BRANCH   3  22
ATOM     22  C   LIG d   1      -6.027  89.889 116.082  0.00  0.00     0.382 C 
ATOM     23  O   LIG d   1      -7.105  89.247 116.122  0.00  0.00    -0.241 OA
ATOM     24  O   LIG d   1      -5.067  89.436 115.430  0.00  0.00    -0.241 OA
ENDBRANCH   3  22
TORSDOF 7
ENDMDL
MODEL 7
REMARK VINA RESULT:      -4.3      2.336      6.141
REMARK  7 active torsions:
REMARK  status: ('A' for Active; 'I' for Inactive)
REMARK    1  A    between atoms: C_2  and  C_3 
REMARK    2  A    between atoms: C_3  and  O_6 
REMARK    3  A    between atoms: C_3  and  C_4 
REMARK    4  A    between atoms: C_7  and  O_6 
REMARK    5  A    between atoms: C_9  and  C_10 
REMARK    6  A    between atoms: N_15  and  C_14 
REMARK    7  A    between atoms: N_20  and  C_19 
REMARK       I    between atoms: C_22  and  N_20 
ROOT
ATOM      1  C   LIG d   1      -5.696  93.386 119.287  0.00  0.00     0.161 C 
ATOM      2  C   LIG d   1      -4.464  92.906 118.812  0.00  0.00     0.016 C 
ATOM      3  C   LIG d   1      -4.336  91.743 118.018  0.00  0.00     0.038 C 
ATOM      4  C   LIG d   1      -5.455  91.061 117.516  0.00  0.00     0.028 C 
ATOM      5  C   LIG d   1      -6.699  91.216 118.384  0.00  0.00    -0.047 C 
ATOM      6  C   LIG d   1      -6.937  92.719 118.657  0.00  0.00     0.091 C 
ENDROOT
BRANCH   1   7
ATOM      7  O   LIG d   1      -5.759  94.816 119.123  0.00  0.00    -0.368 OA
BRANCH   7   8
ATOM      8  C   LIG d   1      -4.934  95.598 120.021  0.00  0.00     0.119 C 
BRANCH   8   9
ATOM      9  C   LIG d   1      -5.875  96.469 120.875  0.00  0.00     0.028 C 
ATOM     10  C   LIG d   1      -7.198  96.783 120.155  0.00  0.00     0.006 C 
ENDBRANCH   8   9
BRANCH   8  11
ATOM     11  C   LIG d   1      -4.053  96.586 119.251  0.00  0.00     0.028 C 
ATOM     12  C   LIG d   1      -2.585  96.140 119.171  0.00  0.00     0.006 C 
ENDBRANCH   8  11
ENDBRANCH   7   8
ENDBRANCH   1   7
BRANCH   6  13
ATOM     13  N   LIG d   1      -8.086  92.954 119.569  0.00  0.00    -0.311 N 
ATOM     14  C   LIG d   1      -9.118  93.737 119.260  0.00  0.00     0.210 C 
ATOM     15  C   LIG d   1     -10.187  93.858 120.352  0.00  0.00     0.109 C 
ATOM     16  O   LIG d   1      -9.266  94.317 118.174  0.00  0.00    -0.276 OA
ATOM     17  H   LIG d   1      -8.063  92.497 120.459  0.00  0.00     0.149 HD
ENDBRANCH   6  13
BRANCH   5  18
ATOM     18  N   LIG d   1      -7.820  90.572 117.674  0.00  0.00     0.381 N 
ATOM     19  H   LIG d   1      -7.784  89.582 117.811  0.00  0.00    -0.090 HD
ATOM     20  H   LIG d   1      -7.732  90.759 116.691  0.00  0.00    -0.090 HD
ATOM     21  H   LIG d   1      -8.687  90.929 118.011  0.00  0.00    -0.090 HD
ENDBRANCH   5  18
BRANCH   3  22
ATOM     22  C   LIG d   1      -3.077  91.228 117.752  0.00  0.00     0.382 C 
ATOM     23  O   LIG d   1      -2.953  90.038 117.373  0.00  0.00    -0.241 OA
ATOM     24  O   LIG d   1      -2.059  91.924 117.930  0.00  0.00    -0.241 OA
ENDBRANCH   3  22
TORSDOF 7
ENDMDL
MODEL 8
REMARK VINA RESULT:      -4.2      2.532      6.060
REMARK  7 active torsions:
REMARK  status: ('A' for Active; 'I' for Inactive)
REMARK    1  A    between atoms: C_2  and  C_3 
REMARK    2  A    between atoms: C_3  and  O_6 
REMARK    3  A    between atoms: C_3  and  C_4 
REMARK    4  A    between atoms: C_7  and  O_6 
REMARK    5  A    between atoms: C_9  and  C_10 
REMARK    6  A    between atoms: N_15  and  C_14 
REMARK    7  A    between atoms: N_20  and  C_19 
REMARK       I    between atoms: C_22  and  N_20 
ROOT
ATOM      1  C   LIG d   1      -6.051  91.939 120.221  0.00  0.00     0.161 C 
ATOM      2  C   LIG d   1      -5.034  91.018 119.919  0.00  0.00     0.016 C 
ATOM      3  C   LIG d   1      -4.815  90.499 118.622  0.00  0.00     0.038 C 
ATOM      4  C   LIG d   1      -5.506  90.985 117.503  0.00  0.00     0.028 C 
ATOM      5  C   LIG d   1      -6.884  91.546 117.838  0.00  0.00    -0.047 C 
ATOM      6  C   LIG d   1      -6.743  92.565 118.992  0.00  0.00     0.091 C 
ENDROOT
BRANCH   1   7
ATOM      7  O   LIG d   1      -5.534  92.972 121.084  0.00  0.00    -0.368 OA
BRANCH   7   8
ATOM      8  C   LIG d   1      -5.032  94.161 120.426  0.00  0.00     0.119 C 
BRANCH   8   9
ATOM      9  C   LIG d   1      -3.508  94.207 120.653  0.00  0.00     0.028 C 
ATOM     10  C   LIG d   1      -2.714  93.916 119.368  0.00  0.00     0.006 C 
ENDBRANCH   8   9
BRANCH   8  11
ATOM     11  C   LIG d   1      -5.578  95.433 121.080  0.00  0.00     0.028 C 
ATOM     12  C   LIG d   1      -6.653  95.144 122.139  0.00  0.00     0.006 C 
ENDBRANCH   8  11
ENDBRANCH   7   8
ENDBRANCH   1   7
BRANCH   6  13
ATOM     13  N   LIG d   1      -8.056  93.100 119.439  0.00  0.00    -0.311 N 
ATOM     14  C   LIG d   1      -8.565  94.251 119.004  0.00  0.00     0.210 C 
ATOM     15  C   LIG d   1      -9.922  94.627 119.607  0.00  0.00     0.109 C 
ATOM     16  O   LIG d   1      -8.037  94.980 118.151  0.00  0.00    -0.276 OA
ATOM     17  H   LIG d   1      -8.566  92.556 120.107  0.00  0.00     0.149 HD
ENDBRANCH   6  13
BRANCH   5  18
ATOM     18  N   LIG d   1      -7.434  92.141 116.606  0.00  0.00     0.381 N 
ATOM     19  H   LIG d   1      -8.432  92.187 116.668  0.00  0.00    -0.090 HD
ATOM     20  H   LIG d   1      -7.193  91.556 115.826  0.00  0.00    -0.090 HD
ATOM     21  H   LIG d   1      -7.061  93.055 116.472  0.00  0.00    -0.090 HD
ENDBRANCH   5  18
BRANCH   3  22
ATOM     22  C   LIG d   1      -3.922  89.453 118.443  0.00  0.00     0.382 C 
ATOM     23  O   LIG d   1      -3.912  88.492 119.249  0.00  0.00    -0.241 OA
ATOM     24  O   LIG d   1      -3.096  89.481 117.511  0.00  0.00    -0.241 OA
ENDBRANCH   3  22
TORSDOF 7
ENDMDL
MODEL 9
REMARK VINA RESULT:      -4.1      2.651      4.291
REMARK  7 active torsions:
REMARK  status: ('A' for Active; 'I' for Inactive)
REMARK    1  A    between atoms: C_2  and  C_3 
REMARK    2  A    between atoms: C_3  and  O_6 
REMARK    3  A    between atoms: C_3  and  C_4 
REMARK    4  A    between atoms: C_7  and  O_6 
REMARK    5  A    between atoms: C_9  and  C_10 
REMARK    6  A    between atoms: N_15  and  C_14 
REMARK    7  A    between atoms: N_20  and  C_19 
REMARK       I    between atoms: C_22  and  N_20 
ROOT
ATOM      1  C   LIG d   1      -3.441  90.064 118.430  0.00  0.00     0.161 C 
ATOM      2  C   LIG d   1      -4.786  89.997 118.032  0.00  0.00     0.016 C 
ATOM      3  C   LIG d   1      -5.592  91.139 117.817  0.00  0.00     0.038 C 
ATOM      4  C   LIG d   1      -5.060  92.437 117.840  0.00  0.00     0.028 C 
ATOM      5  C   LIG d   1      -3.830  92.572 118.731  0.00  0.00    -0.047 C 
ATOM      6  C   LIG d   1      -2.813  91.472 118.352  0.00  0.00     0.091 C 
ENDROOT
BRANCH   1   7
ATOM      7  O   LIG d   1      -2.658  89.124 117.668  0.00  0.00    -0.368 OA
BRANCH   7   8
ATOM      8  C   LIG d   1      -2.229  87.933 118.374  0.00  0.00     0.119 C 
BRANCH   8   9
ATOM      9  C   LIG d   1      -2.542  88.142 119.868  0.00  0.00     0.028 C 
ATOM     10  C   LIG d   1      -3.056  86.860 120.544  0.00  0.00     0.006 C 
ENDBRANCH   8   9
BRANCH   8  11
ATOM     11  C   LIG d   1      -0.709  87.759 118.299  0.00  0.00     0.028 C 
ATOM     12  C   LIG d   1      -0.263  86.928 117.085  0.00  0.00     0.006 C 
ENDBRANCH   8  11
ENDBRANCH   7   8
ENDBRANCH   1   7
BRANCH   6  13
ATOM     13  N   LIG d   1      -1.615  91.479 119.232  0.00  0.00    -0.311 N 
ATOM     14  C   LIG d   1      -0.366  91.459 118.771  0.00  0.00     0.210 C 
ATOM     15  C   LIG d   1       0.722  91.451 119.850  0.00  0.00     0.109 C 
ATOM     16  O   LIG d   1      -0.055  91.480 117.571  0.00  0.00    -0.276 OA
ATOM     17  H   LIG d   1      -1.776  91.493 120.221  0.00  0.00     0.149 HD
ENDBRANCH   6  13
BRANCH   5  18
ATOM     18  N   LIG d   1      -3.299  93.936 118.555  0.00  0.00     0.381 N 
ATOM     19  H   LIG d   1      -2.330  93.958 118.805  0.00  0.00    -0.090 HD
ATOM     20  H   LIG d   1      -3.796  94.561 119.165  0.00  0.00    -0.090 HD
ATOM     21  H   LIG d   1      -3.411  94.226 117.608  0.00  0.00    -0.090 HD
ENDBRANCH   5  18
BRANCH   3  22
ATOM     22  C   LIG d   1      -6.956  90.990 117.615  0.00  0.00     0.382 C 
ATOM     23  O   LIG d   1      -7.412  89.898 117.198  0.00  0.00    -0.241 OA
ATOM     24  O   LIG d   1      -7.731  91.947 117.803  0.00  0.00    -0.241 OA
ENDBRANCH   3  22
TORSDOF 7
ENDMDL
