MODEL 1
REMARK VINA RESULT:      -5.5      0.000      0.000
REMARK  7 active torsions:
REMARK  status: ('A' for Active; 'I' for Inactive)
REMARK    1  A    between atoms: C_2  and  C_3 
REMARK    2  A    between atoms: C_3  and  O_6 
REMARK    3  A    between atoms: C_3  and  C_4 
REMARK    4  A    between atoms: C_7  and  O_6 
REMARK    5  A    between atoms: C_9  and  C_10 
REMARK    6  A    between atoms: N_15  and  C_14 
REMARK    7  A    between atoms: N_20  and  C_19 
REMARK       I    between atoms: C_22  and  N_20 
ROOT
ATOM      1  C   LIG d   1      -5.565  92.916 117.461  0.00  0.00     0.161 C 
ATOM      2  C   LIG d   1      -6.627  92.043 117.171  0.00  0.00     0.016 C 
ATOM      3  C   LIG d   1      -6.443  90.691 116.801  0.00  0.00     0.038 C 
ATOM      4  C   LIG d   1      -5.184  90.075 116.843  0.00  0.00     0.028 C 
ATOM      5  C   LIG d   1      -4.027  91.048 116.641  0.00  0.00    -0.047 C 
ATOM      6  C   LIG d   1      -4.191  92.233 117.620  0.00  0.00     0.091 C 
ENDROOT
BRANCH   1   7
ATOM      7  O   LIG d   1      -5.877  93.692 118.635  0.00  0.00    -0.368 OA
BRANCH   7   8
ATOM      8  C   LIG d   1      -6.866  94.737 118.463  0.00  0.00     0.119 C 
BRANCH   8   9
ATOM      9  C   LIG d   1      -6.164  96.085 118.716  0.00  0.00     0.028 C 
ATOM     10  C   LIG d   1      -4.981  95.957 119.690  0.00  0.00     0.006 C 
ENDBRANCH   8   9
BRANCH   8  11
ATOM     11  C   LIG d   1      -7.964  94.646 119.528  0.00  0.00     0.028 C 
ATOM     12  C   LIG d   1      -9.037  95.735 119.372  0.00  0.00     0.006 C 
ENDBRANCH   8  11
ENDBRANCH   7   8
ENDBRANCH   1   7
BRANCH   6  13
ATOM     13  N   LIG d   1      -3.147  93.273 117.431  0.00  0.00    -0.311 N 
ATOM     14  C   LIG d   1      -2.367  93.717 118.415  0.00  0.00     0.210 C 
ATOM     15  C   LIG d   1      -1.370  94.806 118.009  0.00  0.00     0.109 C 
ATOM     16  O   LIG d   1      -2.385  93.289 119.579  0.00  0.00    -0.276 OA
ATOM     17  H   LIG d   1      -3.042  93.653 116.510  0.00  0.00     0.149 HD
ENDBRANCH   6  13
BRANCH   5  18
ATOM     18  N   LIG d   1      -2.773  90.298 116.846  0.00  0.00     0.381 N 
ATOM     19  H   LIG d   1      -2.347  90.103 115.962  0.00  0.00    -0.090 HD
ATOM     20  H   LIG d   1      -2.986  89.424 117.293  0.00  0.00    -0.090 HD
ATOM     21  H   LIG d   1      -2.148  90.826 117.414  0.00  0.00    -0.090 HD
ENDBRANCH   5  18
BRANCH   3  22
ATOM     22  C   LIG d   1      -7.523  89.950 116.345  0.00  0.00     0.382 C 
ATOM     23  O   LIG d   1      -8.253  90.404 115.430  0.00  0.00    -0.241 OA
ATOM     24  O   LIG d   1      -7.804  88.855 116.867  0.00  0.00    -0.241 OA
ENDBRANCH   3  22
TORSDOF 7
ENDMDL
MODEL 2
REMARK VINA RESULT:      -5.3      0.998      1.526
REMARK  7 active torsions:
REMARK  status: ('A' for Active; 'I' for Inactive)
REMARK    1  A    between atoms: C_2  and  C_3 
REMARK    2  A    between atoms: C_3  and  O_6 
REMARK    3  A    between atoms: C_3  and  C_4 
REMARK    4  A    between atoms: C_7  and  O_6 
REMARK    5  A    between atoms: C_9  and  C_10 
REMARK    6  A    between atoms: N_15  and  C_14 
REMARK    7  A    between atoms: N_20  and  C_19 
REMARK       I    between atoms: C_22  and  N_20 
ROOT
ATOM      1  C   LIG d   1      -5.472  92.918 117.456  0.00  0.00     0.161 C 
ATOM      2  C   LIG d   1      -6.555  92.068 117.180  0.00  0.00     0.016 C 
ATOM      3  C   LIG d   1      -6.405  90.707 116.827  0.00  0.00     0.038 C 
ATOM      4  C   LIG d   1      -5.161  90.061 116.874  0.00  0.00     0.028 C 
ATOM      5  C   LIG d   1      -3.981  91.003 116.657  0.00  0.00    -0.047 C 
ATOM      6  C   LIG d   1      -4.114  92.204 117.621  0.00  0.00     0.091 C 
ENDROOT
BRANCH   1   7
ATOM      7  O   LIG d   1      -5.763  93.717 118.620  0.00  0.00    -0.368 OA
BRANCH   7   8
ATOM      8  C   LIG d   1      -7.141  93.712 119.069  0.00  0.00     0.119 C 
BRANCH   8   9
ATOM      9  C   LIG d   1      -7.639  95.170 119.051  0.00  0.00     0.028 C 
ATOM     10  C   LIG d   1      -6.495  96.178 118.852  0.00  0.00     0.006 C 
ENDBRANCH   8   9
BRANCH   8  11
ATOM     11  C   LIG d   1      -7.250  93.264 120.529  0.00  0.00     0.028 C 
ATOM     12  C   LIG d   1      -6.234  92.170 120.895  0.00  0.00     0.006 C 
ENDBRANCH   8  11
ENDBRANCH   7   8
ENDBRANCH   1   7
BRANCH   6  13
ATOM     13  N   LIG d   1      -3.046  93.217 117.417  0.00  0.00    -0.311 N 
ATOM     14  C   LIG d   1      -1.888  93.204 118.075  0.00  0.00     0.210 C 
ATOM     15  C   LIG d   1      -0.934  94.351 117.728  0.00  0.00     0.109 C 
ATOM     16  O   LIG d   1      -1.548  92.334 118.891  0.00  0.00    -0.276 OA
ATOM     17  H   LIG d   1      -3.226  93.942 116.750  0.00  0.00     0.149 HD
ENDBRANCH   6  13
BRANCH   5  18
ATOM     18  N   LIG d   1      -2.745  90.226 116.869  0.00  0.00     0.381 N 
ATOM     19  H   LIG d   1      -2.802  89.730 117.736  0.00  0.00    -0.090 HD
ATOM     20  H   LIG d   1      -1.967  90.860 116.918  0.00  0.00    -0.090 HD
ATOM     21  H   LIG d   1      -2.613  89.584 116.118  0.00  0.00    -0.090 HD
ENDBRANCH   5  18
BRANCH   3  22
ATOM     22  C   LIG d   1      -7.504  89.987 116.382  0.00  0.00     0.382 C 
ATOM     23  O   LIG d   1      -7.787  88.885 116.910  0.00  0.00    -0.241 OA
ATOM     24  O   LIG d   1      -8.190  90.405 115.430  0.00  0.00    -0.241 OA
ENDBRANCH   3  22
TORSDOF 7
ENDMDL
MODEL 3
REMARK VINA RESULT:      -5.1      1.480      2.036
REMARK  7 active torsions:
REMARK  status: ('A' for Active; 'I' for Inactive)
REMARK    1  A    between atoms: C_2  and  C_3 
REMARK    2  A    between atoms: C_3  and  O_6 
REMARK    3  A    between atoms: C_3  and  C_4 
REMARK    4  A    between atoms: C_7  and  O_6 
REMARK    5  A    between atoms: C_9  and  C_10 
REMARK    6  A    between atoms: N_15  and  C_14 
REMARK    7  A    between atoms: N_20  and  C_19 
REMARK       I    between atoms: C_22  and  N_20 
ROOT
ATOM      1  C   LIG d   1      -5.554  93.041 118.509  0.00  0.00     0.161 C 
ATOM      2  C   LIG d   1      -6.106  91.899 117.904  0.00  0.00     0.016 C 
ATOM      3  C   LIG d   1      -5.339  90.946 117.196  0.00  0.00     0.038 C 
ATOM      4  C   LIG d   1      -3.937  90.990 117.174  0.00  0.00     0.028 C 
ATOM      5  C   LIG d   1      -3.373  92.397 117.343  0.00  0.00    -0.047 C 
ATOM      6  C   LIG d   1      -4.013  93.048 118.591  0.00  0.00     0.091 C 
ENDROOT
BRANCH   1   7
ATOM      7  O   LIG d   1      -6.126  93.224 119.819  0.00  0.00    -0.368 OA
BRANCH   7   8
ATOM      8  C   LIG d   1      -6.748  94.509 120.069  0.00  0.00     0.119 C 
BRANCH   8   9
ATOM      9  C   LIG d   1      -8.063  94.247 120.828  0.00  0.00     0.028 C 
ATOM     10  C   LIG d   1      -8.070  92.881 121.536  0.00  0.00     0.006 C 
ENDBRANCH   8   9
BRANCH   8  11
ATOM     11  C   LIG d   1      -7.163  95.190 118.762  0.00  0.00     0.028 C 
ATOM     12  C   LIG d   1      -8.681  95.414 118.663  0.00  0.00     0.006 C 
ENDBRANCH   8  11
ENDBRANCH   7   8
ENDBRANCH   1   7
BRANCH   6  13
ATOM     13  N   LIG d   1      -3.580  94.457 118.781  0.00  0.00    -0.311 N 
ATOM     14  C   LIG d   1      -2.509  94.805 119.492  0.00  0.00     0.210 C 
ATOM     15  C   LIG d   1      -2.251  96.312 119.578  0.00  0.00     0.109 C 
ATOM     16  O   LIG d   1      -1.730  94.006 120.034  0.00  0.00    -0.276 OA
ATOM     17  H   LIG d   1      -4.137  95.168 118.349  0.00  0.00     0.149 HD
ENDBRANCH   6  13
BRANCH   5  18
ATOM     18  N   LIG d   1      -1.906  92.281 117.440  0.00  0.00     0.381 N 
ATOM     19  H   LIG d   1      -1.589  92.694 118.294  0.00  0.00    -0.090 HD
ATOM     20  H   LIG d   1      -1.489  92.780 116.674  0.00  0.00    -0.090 HD
ATOM     21  H   LIG d   1      -1.637  91.322 117.407  0.00  0.00    -0.090 HD
ENDBRANCH   5  18
BRANCH   3  22
ATOM     22  C   LIG d   1      -5.978  89.955 116.467  0.00  0.00     0.382 C 
ATOM     23  O   LIG d   1      -7.066  89.480 116.873  0.00  0.00    -0.241 OA
ATOM     24  O   LIG d   1      -5.458  89.498 115.431  0.00  0.00    -0.241 OA
ENDBRANCH   3  22
TORSDOF 7
ENDMDL
MODEL 4
REMARK VINA RESULT:      -5.0      2.225      4.447
REMARK  7 active torsions:
REMARK  status: ('A' for Active; 'I' for Inactive)
REMARK    1  A    between atoms: C_2  and  C_3 
REMARK    2  A    between atoms: C_3  and  O_6 
REMARK    3  A    between atoms: C_3  and  C_4 
REMARK    4  A    between atoms: C_7  and  O_6 
REMARK    5  A    between atoms: C_9  and  C_10 
REMARK    6  A    between atoms: N_15  and  C_14 
REMARK    7  A    between atoms: N_20  and  C_19 
REMARK       I    between atoms: C_22  and  N_20 
ROOT
ATOM      1  C   LIG d   1      -4.716  91.743 119.160  0.00  0.00     0.161 C 
ATOM      2  C   LIG d   1      -5.345  90.973 118.168  0.00  0.00     0.016 C 
ATOM      3  C   LIG d   1      -6.248  91.510 117.222  0.00  0.00     0.038 C 
ATOM      4  C   LIG d   1      -6.469  92.891 117.109  0.00  0.00     0.028 C 
ATOM      5  C   LIG d   1      -6.244  93.649 118.412  0.00  0.00    -0.047 C 
ATOM      6  C   LIG d   1      -4.858  93.269 118.982  0.00  0.00     0.091 C 
ENDROOT
BRANCH   1   7
ATOM      7  O   LIG d   1      -3.325  91.377 119.253  0.00  0.00    -0.368 OA
BRANCH   7   8
ATOM      8  C   LIG d   1      -2.488  91.762 118.135  0.00  0.00     0.119 C 
BRANCH   8   9
ATOM      9  C   LIG d   1      -1.685  90.518 117.707  0.00  0.00     0.028 C 
ATOM     10  C   LIG d   1      -2.187  89.233 118.388  0.00  0.00     0.006 C 
ENDBRANCH   8   9
BRANCH   8  11
ATOM     11  C   LIG d   1      -1.440  92.797 118.553  0.00  0.00     0.028 C 
ATOM     12  C   LIG d   1      -1.324  93.963 117.559  0.00  0.00     0.006 C 
ENDBRANCH   8  11
ENDBRANCH   7   8
ENDBRANCH   1   7
BRANCH   6  13
ATOM     13  N   LIG d   1      -4.594  93.902 120.300  0.00  0.00    -0.311 N 
ATOM     14  C   LIG d   1      -3.977  95.074 120.439  0.00  0.00     0.210 C 
ATOM     15  C   LIG d   1      -3.787  95.537 121.887  0.00  0.00     0.109 C 
ATOM     16  O   LIG d   1      -3.597  95.790 119.500  0.00  0.00    -0.276 OA
ATOM     17  H   LIG d   1      -4.896  93.404 121.114  0.00  0.00     0.149 HD
ENDBRANCH   6  13
BRANCH   5  18
ATOM     18  N   LIG d   1      -6.373  95.089 118.119  0.00  0.00     0.381 N 
ATOM     19  H   LIG d   1      -7.296  95.285 117.785  0.00  0.00    -0.090 HD
ATOM     20  H   LIG d   1      -5.718  95.333 117.397  0.00  0.00    -0.090 HD
ATOM     21  H   LIG d   1      -6.189  95.622 118.940  0.00  0.00    -0.090 HD
ENDBRANCH   5  18
BRANCH   3  22
ATOM     22  C   LIG d   1      -6.973  90.658 116.402  0.00  0.00     0.382 C 
ATOM     23  O   LIG d   1      -6.947  89.420 116.606  0.00  0.00    -0.241 OA
ATOM     24  O   LIG d   1      -7.616  91.107 115.435  0.00  0.00    -0.241 OA
ENDBRANCH   3  22
TORSDOF 7
ENDMDL
MODEL 5
REMARK VINA RESULT:      -5.0      2.289      4.612
REMARK  7 active torsions:
REMARK  status: ('A' for Active; 'I' for Inactive)
REMARK    1  A    between atoms: C_2  and  C_3 
REMARK    2  A    between atoms: C_3  and  O_6 
REMARK    3  A    between atoms: C_3  and  C_4 
REMARK    4  A    between atoms: C_7  and  O_6 
REMARK    5  A    between atoms: C_9  and  C_10 
REMARK    6  A    between atoms: N_15  and  C_14 
REMARK    7  A    between atoms: N_20  and  C_19 
REMARK       I    between atoms: C_22  and  N_20 
ROOT
ATOM      1  C   LIG d   1      -4.048  91.542 118.325  0.00  0.00     0.161 C 
ATOM      2  C   LIG d   1      -4.898  90.801 117.487  0.00  0.00     0.016 C 
ATOM      3  C   LIG d   1      -6.090  91.321 116.931  0.00  0.00     0.038 C 
ATOM      4  C   LIG d   1      -6.436  92.675 117.054  0.00  0.00     0.028 C 
ATOM      5  C   LIG d   1      -5.871  93.333 118.308  0.00  0.00    -0.047 C 
ATOM      6  C   LIG d   1      -4.352  93.054 118.380  0.00  0.00     0.091 C 
ENDROOT
BRANCH   1   7
ATOM      7  O   LIG d   1      -2.675  91.320 117.947  0.00  0.00    -0.368 OA
BRANCH   7   8
ATOM      8  C   LIG d   1      -1.872  90.559 118.883  0.00  0.00     0.119 C 
BRANCH   8   9
ATOM      9  C   LIG d   1      -0.546  91.320 119.080  0.00  0.00     0.028 C 
ATOM     10  C   LIG d   1      -0.166  92.164 117.851  0.00  0.00     0.006 C 
ENDBRANCH   8   9
BRANCH   8  11
ATOM     11  C   LIG d   1      -1.476  89.199 118.300  0.00  0.00     0.028 C 
ATOM     12  C   LIG d   1      -1.915  88.022 119.185  0.00  0.00     0.006 C 
ENDBRANCH   8  11
ENDBRANCH   7   8
ENDBRANCH   1   7
BRANCH   6  13
ATOM     13  N   LIG d   1      -3.735  93.591 119.621  0.00  0.00    -0.311 N 
ATOM     14  C   LIG d   1      -2.713  94.444 119.621  0.00  0.00     0.210 C 
ATOM     15  C   LIG d   1      -2.216  94.857 121.010  0.00  0.00     0.109 C 
ATOM     16  O   LIG d   1      -2.191  94.923 118.603  0.00  0.00    -0.276 OA
ATOM     17  H   LIG d   1      -4.117  93.279 120.493  0.00  0.00     0.149 HD
ENDBRANCH   6  13
BRANCH   5  18
ATOM     18  N   LIG d   1      -6.191  94.771 118.240  0.00  0.00     0.381 N 
ATOM     19  H   LIG d   1      -5.377  95.287 117.973  0.00  0.00    -0.090 HD
ATOM     20  H   LIG d   1      -6.479  95.084 119.151  0.00  0.00    -0.090 HD
ATOM     21  H   LIG d   1      -6.923  94.927 117.582  0.00  0.00    -0.090 HD
ENDBRANCH   5  18
BRANCH   3  22
ATOM     22  C   LIG d   1      -6.969  90.473 116.275  0.00  0.00     0.382 C 
ATOM     23  O   LIG d   1      -7.774  90.936 115.430  0.00  0.00    -0.241 OA
ATOM     24  O   LIG d   1      -6.999  89.259 116.550  0.00  0.00    -0.241 OA
ENDBRANCH   3  22
TORSDOF 7
ENDMDL
MODEL 6
REMARK VINA RESULT:      -4.8      3.577      5.934
REMARK  7 active torsions:
REMARK  status: ('A' for Active; 'I' for Inactive)
REMARK    1  A    between atoms: C_2  and  C_3 
REMARK    2  A    between atoms: C_3  and  O_6 
REMARK    3  A    between atoms: C_3  and  C_4 
REMARK    4  A    between atoms: C_7  and  O_6 
REMARK    5  A    between atoms: C_9  and  C_10 
REMARK    6  A    between atoms: N_15  and  C_14 
REMARK    7  A    between atoms: N_20  and  C_19 
REMARK       I    between atoms: C_22  and  N_20 
ROOT
ATOM      1  C   LIG d   1      -2.554  89.982 118.195  0.00  0.00     0.161 C 
ATOM      2  C   LIG d   1      -3.908  89.854 117.845  0.00  0.00     0.016 C 
ATOM      3  C   LIG d   1      -4.698  90.931 117.382  0.00  0.00     0.038 C 
ATOM      4  C   LIG d   1      -4.142  92.186 117.091  0.00  0.00     0.028 C 
ATOM      5  C   LIG d   1      -2.891  92.499 117.906  0.00  0.00    -0.047 C 
ATOM      6  C   LIG d   1      -1.902  91.318 117.779  0.00  0.00     0.091 C 
ENDROOT
BRANCH   1   7
ATOM      7  O   LIG d   1      -1.804  88.872 117.663  0.00  0.00    -0.368 OA
BRANCH   7   8
ATOM      8  C   LIG d   1      -1.340  87.896 118.628  0.00  0.00     0.119 C 
BRANCH   8   9
ATOM      9  C   LIG d   1      -1.746  88.398 120.027  0.00  0.00     0.028 C 
ATOM     10  C   LIG d   1      -2.337  87.281 120.903  0.00  0.00     0.006 C 
ENDBRANCH   8   9
BRANCH   8  11
ATOM     11  C   LIG d   1       0.190  87.821 118.652  0.00  0.00     0.028 C 
ATOM     12  C   LIG d   1       0.815  87.962 117.256  0.00  0.00     0.006 C 
ENDBRANCH   8  11
ENDBRANCH   7   8
ENDBRANCH   1   7
BRANCH   6  13
ATOM     13  N   LIG d   1      -0.687  91.504 118.614  0.00  0.00    -0.311 N 
ATOM     14  C   LIG d   1       0.545  91.571 118.111  0.00  0.00     0.210 C 
ATOM     15  C   LIG d   1       1.658  91.747 119.149  0.00  0.00     0.109 C 
ATOM     16  O   LIG d   1       0.818  91.535 116.902  0.00  0.00    -0.276 OA
ATOM     17  H   LIG d   1      -0.820  91.575 119.604  0.00  0.00     0.149 HD
ENDBRANCH   6  13
BRANCH   5  18
ATOM     18  N   LIG d   1      -2.340  93.772 117.405  0.00  0.00     0.381 N 
ATOM     19  H   LIG d   1      -1.645  93.589 116.709  0.00  0.00    -0.090 HD
ATOM     20  H   LIG d   1      -1.902  94.258 118.167  0.00  0.00    -0.090 HD
ATOM     21  H   LIG d   1      -3.068  94.331 117.019  0.00  0.00    -0.090 HD
ENDBRANCH   5  18
BRANCH   3  22
ATOM     22  C   LIG d   1      -6.068  90.769 117.242  0.00  0.00     0.382 C 
ATOM     23  O   LIG d   1      -6.533  89.671 116.855  0.00  0.00    -0.241 OA
ATOM     24  O   LIG d   1      -6.841  91.722 117.456  0.00  0.00    -0.241 OA
ENDBRANCH   3  22
TORSDOF 7
ENDMDL
MODEL 7
REMARK VINA RESULT:      -4.7      3.350      6.380
REMARK  7 active torsions:
REMARK  status: ('A' for Active; 'I' for Inactive)
REMARK    1  A    between atoms: C_2  and  C_3 
REMARK    2  A    between atoms: C_3  and  O_6 
REMARK    3  A    between atoms: C_3  and  C_4 
REMARK    4  A    between atoms: C_7  and  O_6 
REMARK    5  A    between atoms: C_9  and  C_10 
REMARK    6  A    between atoms: N_15  and  C_14 
REMARK    7  A    between atoms: N_20  and  C_19 
REMARK       I    between atoms: C_22  and  N_20 
ROOT
ATOM      1  C   LIG d   1      -2.575  91.269 117.816  0.00  0.00     0.161 C 
ATOM      2  C   LIG d   1      -1.257  90.841 117.585  0.00  0.00     0.016 C 
ATOM      3  C   LIG d   1      -0.161  91.725 117.469  0.00  0.00     0.038 C 
ATOM      4  C   LIG d   1      -0.285  93.098 117.730  0.00  0.00     0.028 C 
ATOM      5  C   LIG d   1      -1.686  93.640 117.470  0.00  0.00    -0.047 C 
ATOM      6  C   LIG d   1      -2.712  92.754 118.213  0.00  0.00     0.091 C 
ENDROOT
BRANCH   1   7
ATOM      7  O   LIG d   1      -3.196  90.426 118.807  0.00  0.00    -0.368 OA
BRANCH   7   8
ATOM      8  C   LIG d   1      -2.317  89.881 119.821  0.00  0.00     0.119 C 
BRANCH   8   9
ATOM      9  C   LIG d   1      -2.596  88.368 119.910  0.00  0.00     0.028 C 
ATOM     10  C   LIG d   1      -1.375  87.522 119.510  0.00  0.00     0.006 C 
ENDBRANCH   8   9
BRANCH   8  11
ATOM     11  C   LIG d   1      -2.653  90.437 121.208  0.00  0.00     0.028 C 
ATOM     12  C   LIG d   1      -1.829  91.684 121.566  0.00  0.00     0.006 C 
ENDBRANCH   8  11
ENDBRANCH   7   8
ENDBRANCH   1   7
BRANCH   6  13
ATOM     13  N   LIG d   1      -4.115  93.164 117.944  0.00  0.00    -0.311 N 
ATOM     14  C   LIG d   1      -4.982  93.484 118.903  0.00  0.00     0.210 C 
ATOM     15  C   LIG d   1      -6.383  93.859 118.410  0.00  0.00     0.109 C 
ATOM     16  O   LIG d   1      -4.714  93.525 120.114  0.00  0.00    -0.276 OA
ATOM     17  H   LIG d   1      -4.408  93.188 116.987  0.00  0.00     0.149 HD
ENDBRANCH   6  13
BRANCH   5  18
ATOM     18  N   LIG d   1      -1.710  95.047 117.912  0.00  0.00     0.381 N 
ATOM     19  H   LIG d   1      -0.861  95.502 117.640  0.00  0.00    -0.090 HD
ATOM     20  H   LIG d   1      -1.773  95.072 118.915  0.00  0.00    -0.090 HD
ATOM     21  H   LIG d   1      -2.491  95.518 117.511  0.00  0.00    -0.090 HD
ENDBRANCH   5  18
BRANCH   3  22
ATOM     22  C   LIG d   1       1.070  91.243 117.051  0.00  0.00     0.382 C 
ATOM     23  O   LIG d   1       1.130  90.214 116.336  0.00  0.00    -0.241 OA
ATOM     24  O   LIG d   1       2.124  91.799 117.415  0.00  0.00    -0.241 OA
ENDBRANCH   3  22
TORSDOF 7
ENDMDL
MODEL 8
REMARK VINA RESULT:      -4.7      2.783      6.364
REMARK  7 active torsions:
REMARK  status: ('A' for Active; 'I' for Inactive)
REMARK    1  A    between atoms: C_2  and  C_3 
REMARK    2  A    between atoms: C_3  and  O_6 
REMARK    3  A    between atoms: C_3  and  C_4 
REMARK    4  A    between atoms: C_7  and  O_6 
REMARK    5  A    between atoms: C_9  and  C_10 
REMARK    6  A    between atoms: N_15  and  C_14 
REMARK    7  A    between atoms: N_20  and  C_19 
REMARK       I    between atoms: C_22  and  N_20 
ROOT
ATOM      1  C   LIG d   1      -4.107  91.621 117.632  0.00  0.00     0.161 C 
ATOM      2  C   LIG d   1      -3.293  92.677 118.072  0.00  0.00     0.016 C 
ATOM      3  C   LIG d   1      -3.711  93.638 119.022  0.00  0.00     0.038 C 
ATOM      4  C   LIG d   1      -4.927  93.518 119.712  0.00  0.00     0.028 C 
ATOM      5  C   LIG d   1      -5.992  92.752 118.934  0.00  0.00    -0.047 C 
ATOM      6  C   LIG d   1      -5.395  91.409 118.455  0.00  0.00     0.091 C 
ENDROOT
BRANCH   1   7
ATOM      7  O   LIG d   1      -3.340  90.401 117.580  0.00  0.00    -0.368 OA
BRANCH   7   8
ATOM      8  C   LIG d   1      -2.314  90.251 118.592  0.00  0.00     0.119 C 
BRANCH   8   9
ATOM      9  C   LIG d   1      -1.071  89.652 117.906  0.00  0.00     0.028 C 
ATOM     10  C   LIG d   1      -0.174  90.729 117.274  0.00  0.00     0.006 C 
ENDBRANCH   8   9
BRANCH   8  11
ATOM     11  C   LIG d   1      -2.725  89.225 119.653  0.00  0.00     0.028 C 
ATOM     12  C   LIG d   1      -1.911  87.924 119.571  0.00  0.00     0.006 C 
ENDBRANCH   8  11
ENDBRANCH   7   8
ENDBRANCH   1   7
BRANCH   6  13
ATOM     13  N   LIG d   1      -6.344  90.634 117.615  0.00  0.00    -0.311 N 
ATOM     14  C   LIG d   1      -6.829  91.079 116.456  0.00  0.00     0.210 C 
ATOM     15  C   LIG d   1      -7.809  90.131 115.759  0.00  0.00     0.109 C 
ATOM     16  O   LIG d   1      -6.514  92.154 115.924  0.00  0.00    -0.276 OA
ATOM     17  H   LIG d   1      -6.628  89.737 117.956  0.00  0.00     0.149 HD
ENDBRANCH   6  13
BRANCH   5  18
ATOM     18  N   LIG d   1      -7.157  92.583 119.823  0.00  0.00     0.381 N 
ATOM     19  H   LIG d   1      -6.868  92.164 120.684  0.00  0.00    -0.090 HD
ATOM     20  H   LIG d   1      -7.817  91.969 119.379  0.00  0.00    -0.090 HD
ATOM     21  H   LIG d   1      -7.581  93.466 120.001  0.00  0.00    -0.090 HD
ENDBRANCH   5  18
BRANCH   3  22
ATOM     22  C   LIG d   1      -2.926  94.756 119.260  0.00  0.00     0.382 C 
ATOM     23  O   LIG d   1      -1.687  94.631 119.410  0.00  0.00    -0.241 OA
ATOM     24  O   LIG d   1      -3.447  95.882 119.371  0.00  0.00    -0.241 OA
ENDBRANCH   3  22
TORSDOF 7
ENDMDL
MODEL 9
REMARK VINA RESULT:      -4.7      1.812      4.898
REMARK  7 active torsions:
REMARK  status: ('A' for Active; 'I' for Inactive)
REMARK    1  A    between atoms: C_2  and  C_3 
REMARK    2  A    between atoms: C_3  and  O_6 
REMARK    3  A    between atoms: C_3  and  C_4 
REMARK    4  A    between atoms: C_7  and  O_6 
REMARK    5  A    between atoms: C_9  and  C_10 
REMARK    6  A    between atoms: N_15  and  C_14 
REMARK    7  A    between atoms: N_20  and  C_19 
REMARK       I    between atoms: C_22  and  N_20 
ROOT
ATOM      1  C   LIG d   1      -5.794  92.039 119.289  0.00  0.00     0.161 C 
ATOM      2  C   LIG d   1      -4.661  92.677 119.822  0.00  0.00     0.016 C 
ATOM      3  C   LIG d   1      -3.395  92.668 119.191  0.00  0.00     0.038 C 
ATOM      4  C   LIG d   1      -3.212  92.145 117.903  0.00  0.00     0.028 C 
ATOM      5  C   LIG d   1      -4.209  91.048 117.547  0.00  0.00    -0.047 C 
ATOM      6  C   LIG d   1      -5.640  91.559 117.831  0.00  0.00     0.091 C 
ENDROOT
BRANCH   1   7
ATOM      7  O   LIG d   1      -6.943  92.900 119.415  0.00  0.00    -0.368 OA
BRANCH   7   8
ATOM      8  C   LIG d   1      -6.820  93.995 120.356  0.00  0.00     0.119 C 
BRANCH   8   9
ATOM      9  C   LIG d   1      -7.908  93.807 121.430  0.00  0.00     0.028 C 
ATOM     10  C   LIG d   1      -7.801  92.448 122.143  0.00  0.00     0.006 C 
ENDBRANCH   8   9
BRANCH   8  11
ATOM     11  C   LIG d   1      -7.133  95.338 119.691  0.00  0.00     0.028 C 
ATOM     12  C   LIG d   1      -7.418  95.207 118.186  0.00  0.00     0.006 C 
ENDBRANCH   8  11
ENDBRANCH   7   8
ENDBRANCH   1   7
BRANCH   6  13
ATOM     13  N   LIG d   1      -6.673  90.517 117.590  0.00  0.00    -0.311 N 
ATOM     14  C   LIG d   1      -7.333  90.392 116.440  0.00  0.00     0.210 C 
ATOM     15  C   LIG d   1      -8.369  89.264 116.409  0.00  0.00     0.109 C 
ATOM     16  O   LIG d   1      -7.136  91.087 115.432  0.00  0.00    -0.276 OA
ATOM     17  H   LIG d   1      -6.873  89.890 118.344  0.00  0.00     0.149 HD
ENDBRANCH   6  13
BRANCH   5  18
ATOM     18  N   LIG d   1      -3.993  90.691 116.132  0.00  0.00     0.381 N 
ATOM     19  H   LIG d   1      -3.384  91.358 115.704  0.00  0.00    -0.090 HD
ATOM     20  H   LIG d   1      -4.876  90.715 115.652  0.00  0.00    -0.090 HD
ATOM     21  H   LIG d   1      -3.597  89.779 116.067  0.00  0.00    -0.090 HD
ENDBRANCH   5  18
BRANCH   3  22
ATOM     22  C   LIG d   1      -2.287  93.152 119.870  0.00  0.00     0.382 C 
ATOM     23  O   LIG d   1      -2.243  94.355 120.221  0.00  0.00    -0.241 OA
ATOM     24  O   LIG d   1      -1.311  92.411 120.095  0.00  0.00    -0.241 OA
ENDBRANCH   3  22
TORSDOF 7
ENDMDL
