MODEL 1
REMARK VINA RESULT:      -5.7      0.000      0.000
REMARK  7 active torsions:
REMARK  status: ('A' for Active; 'I' for Inactive)
REMARK    1  A    between atoms: C_2  and  C_3 
REMARK    2  A    between atoms: C_3  and  O_6 
REMARK    3  A    between atoms: C_3  and  C_4 
REMARK    4  A    between atoms: C_7  and  O_6 
REMARK    5  A    between atoms: C_9  and  C_10 
REMARK    6  A    between atoms: N_15  and  C_14 
REMARK    7  A    between atoms: N_20  and  C_19 
REMARK       I    between atoms: C_22  and  N_20 
ROOT
ATOM      1  C   LIG d   1      -4.343  92.228 118.145  0.00  0.00     0.161 C 
ATOM      2  C   LIG d   1      -5.005  91.490 117.148  0.00  0.00     0.016 C 
ATOM      3  C   LIG d   1      -6.289  91.822 116.658  0.00  0.00     0.038 C 
ATOM      4  C   LIG d   1      -6.939  93.009 117.026  0.00  0.00     0.028 C 
ATOM      5  C   LIG d   1      -6.532  93.521 118.404  0.00  0.00    -0.047 C 
ATOM      6  C   LIG d   1      -4.989  93.589 118.478  0.00  0.00     0.091 C 
ENDROOT
BRANCH   1   7
ATOM      7  O   LIG d   1      -2.959  92.405 117.784  0.00  0.00    -0.368 OA
BRANCH   7   8
ATOM      8  C   LIG d   1      -1.999  91.624 118.537  0.00  0.00     0.119 C 
BRANCH   8   9
ATOM      9  C   LIG d   1      -0.786  92.531 118.820  0.00  0.00     0.028 C 
ATOM     10  C   LIG d   1       0.058  92.793 117.561  0.00  0.00     0.006 C 
ENDBRANCH   8   9
BRANCH   8  11
ATOM     11  C   LIG d   1      -1.451  90.462 117.704  0.00  0.00     0.028 C 
ATOM     12  C   LIG d   1      -2.196  89.142 117.960  0.00  0.00     0.006 C 
ENDBRANCH   8  11
ENDBRANCH   7   8
ENDBRANCH   1   7
BRANCH   6  13
ATOM     13  N   LIG d   1      -4.504  94.000 119.821  0.00  0.00    -0.311 N 
ATOM     14  C   LIG d   1      -4.189  95.255 120.134  0.00  0.00     0.210 C 
ATOM     15  C   LIG d   1      -3.690  95.458 121.569  0.00  0.00     0.109 C 
ATOM     16  O   LIG d   1      -4.305  96.225 119.370  0.00  0.00    -0.276 OA
ATOM     17  H   LIG d   1      -4.410  93.281 120.512  0.00  0.00     0.149 HD
ENDBRANCH   6  13
BRANCH   5  18
ATOM     18  N   LIG d   1      -7.179  94.832 118.601  0.00  0.00     0.381 N 
ATOM     19  H   LIG d   1      -6.893  95.221 119.477  0.00  0.00    -0.090 HD
ATOM     20  H   LIG d   1      -8.175  94.703 118.623  0.00  0.00    -0.090 HD
ATOM     21  H   LIG d   1      -6.932  95.449 117.859  0.00  0.00    -0.090 HD
ENDBRANCH   5  18
BRANCH   3  22
ATOM     22  C   LIG d   1      -6.953  90.940 115.819  0.00  0.00     0.382 C 
ATOM     23  O   LIG d   1      -8.139  91.168 115.482  0.00  0.00    -0.241 OA
ATOM     24  O   LIG d   1      -6.394  89.896 115.430  0.00  0.00    -0.241 OA
ENDBRANCH   3  22
TORSDOF 7
ENDMDL
MODEL 2
REMARK VINA RESULT:      -5.5      2.453      4.450
REMARK  7 active torsions:
REMARK  status: ('A' for Active; 'I' for Inactive)
REMARK    1  A    between atoms: C_2  and  C_3 
REMARK    2  A    between atoms: C_3  and  O_6 
REMARK    3  A    between atoms: C_3  and  C_4 
REMARK    4  A    between atoms: C_7  and  O_6 
REMARK    5  A    between atoms: C_9  and  C_10 
REMARK    6  A    between atoms: N_15  and  C_14 
REMARK    7  A    between atoms: N_20  and  C_19 
REMARK       I    between atoms: C_22  and  N_20 
ROOT
ATOM      1  C   LIG d   1      -5.308  93.086 118.580  0.00  0.00     0.161 C 
ATOM      2  C   LIG d   1      -6.641  93.524 118.514  0.00  0.00     0.016 C 
ATOM      3  C   LIG d   1      -7.591  92.993 117.612  0.00  0.00     0.038 C 
ATOM      4  C   LIG d   1      -7.311  91.874 116.813  0.00  0.00     0.028 C 
ATOM      5  C   LIG d   1      -5.830  91.722 116.483  0.00  0.00    -0.047 C 
ATOM      6  C   LIG d   1      -5.013  91.791 117.794  0.00  0.00     0.091 C 
ENDROOT
BRANCH   1   7
ATOM      7  O   LIG d   1      -4.910  92.937 119.957  0.00  0.00    -0.368 OA
BRANCH   7   8
ATOM      8  C   LIG d   1      -4.020  93.956 120.477  0.00  0.00     0.119 C 
BRANCH   8   9
ATOM      9  C   LIG d   1      -2.645  93.297 120.702  0.00  0.00     0.028 C 
ATOM     10  C   LIG d   1      -2.763  91.841 121.181  0.00  0.00     0.006 C 
ENDBRANCH   8   9
BRANCH   8  11
ATOM     11  C   LIG d   1      -4.470  94.436 121.859  0.00  0.00     0.028 C 
ATOM     12  C   LIG d   1      -5.842  93.876 122.267  0.00  0.00     0.006 C 
ENDBRANCH   8  11
ENDBRANCH   7   8
ENDBRANCH   1   7
BRANCH   6  13
ATOM     13  N   LIG d   1      -3.548  91.735 117.552  0.00  0.00    -0.311 N 
ATOM     14  C   LIG d   1      -2.834  90.613 117.632  0.00  0.00     0.210 C 
ATOM     15  C   LIG d   1      -1.335  90.780 117.366  0.00  0.00     0.109 C 
ATOM     16  O   LIG d   1      -3.306  89.490 117.866  0.00  0.00    -0.276 OA
ATOM     17  H   LIG d   1      -3.090  92.596 117.326  0.00  0.00     0.149 HD
ENDBRANCH   6  13
BRANCH   5  18
ATOM     18  N   LIG d   1      -5.662  90.445 115.764  0.00  0.00     0.381 N 
ATOM     19  H   LIG d   1      -4.689  90.255 115.634  0.00  0.00    -0.090 HD
ATOM     20  H   LIG d   1      -6.092  90.522 114.859  0.00  0.00    -0.090 HD
ATOM     21  H   LIG d   1      -6.087  89.705 116.279  0.00  0.00    -0.090 HD
ENDBRANCH   5  18
BRANCH   3  22
ATOM     22  C   LIG d   1      -8.827  93.607 117.474  0.00  0.00     0.382 C 
ATOM     23  O   LIG d   1      -9.642  93.596 118.428  0.00  0.00    -0.241 OA
ATOM     24  O   LIG d   1      -9.153  94.134 116.394  0.00  0.00    -0.241 OA
ENDBRANCH   3  22
TORSDOF 7
ENDMDL
MODEL 3
REMARK VINA RESULT:      -5.3      2.359      3.681
REMARK  7 active torsions:
REMARK  status: ('A' for Active; 'I' for Inactive)
REMARK    1  A    between atoms: C_2  and  C_3 
REMARK    2  A    between atoms: C_3  and  O_6 
REMARK    3  A    between atoms: C_3  and  C_4 
REMARK    4  A    between atoms: C_7  and  O_6 
REMARK    5  A    between atoms: C_9  and  C_10 
REMARK    6  A    between atoms: N_15  and  C_14 
REMARK    7  A    between atoms: N_20  and  C_19 
REMARK       I    between atoms: C_22  and  N_20 
ROOT
ATOM      1  C   LIG d   1      -6.036  93.491 118.552  0.00  0.00     0.161 C 
ATOM      2  C   LIG d   1      -5.570  92.394 117.808  0.00  0.00     0.016 C 
ATOM      3  C   LIG d   1      -6.216  91.913 116.645  0.00  0.00     0.038 C 
ATOM      4  C   LIG d   1      -7.293  92.595 116.059  0.00  0.00     0.028 C 
ATOM      5  C   LIG d   1      -8.106  93.414 117.056  0.00  0.00    -0.047 C 
ATOM      6  C   LIG d   1      -7.145  94.315 117.866  0.00  0.00     0.091 C 
ENDROOT
BRANCH   1   7
ATOM      7  O   LIG d   1      -4.929  94.342 118.912  0.00  0.00    -0.368 OA
BRANCH   7   8
ATOM      8  C   LIG d   1      -4.560  94.349 120.313  0.00  0.00     0.119 C 
BRANCH   8   9
ATOM      9  C   LIG d   1      -4.169  95.794 120.681  0.00  0.00     0.028 C 
ATOM     10  C   LIG d   1      -4.666  96.818 119.647  0.00  0.00     0.006 C 
ENDBRANCH   8   9
BRANCH   8  11
ATOM     11  C   LIG d   1      -3.302  93.512 120.562  0.00  0.00     0.028 C 
ATOM     12  C   LIG d   1      -2.009  94.339 120.473  0.00  0.00     0.006 C 
ENDBRANCH   8  11
ENDBRANCH   7   8
ENDBRANCH   1   7
BRANCH   6  13
ATOM     13  N   LIG d   1      -7.849  95.088 118.922  0.00  0.00    -0.311 N 
ATOM     14  C   LIG d   1      -8.356  96.304 118.726  0.00  0.00     0.210 C 
ATOM     15  C   LIG d   1      -9.023  96.933 119.953  0.00  0.00     0.109 C 
ATOM     16  O   LIG d   1      -8.343  96.909 117.643  0.00  0.00    -0.276 OA
ATOM     17  H   LIG d   1      -7.932  94.659 119.823  0.00  0.00     0.149 HD
ENDBRANCH   6  13
BRANCH   5  18
ATOM     18  N   LIG d   1      -9.109  94.179 116.292  0.00  0.00     0.381 N 
ATOM     19  H   LIG d   1      -9.778  94.580 116.918  0.00  0.00    -0.090 HD
ATOM     20  H   LIG d   1      -9.592  93.552 115.672  0.00  0.00    -0.090 HD
ATOM     21  H   LIG d   1      -8.662  94.897 115.766  0.00  0.00    -0.090 HD
ENDBRANCH   5  18
BRANCH   3  22
ATOM     22  C   LIG d   1      -5.808  90.715 116.079  0.00  0.00     0.382 C 
ATOM     23  O   LIG d   1      -6.626  90.016 115.433  0.00  0.00    -0.241 OA
ATOM     24  O   LIG d   1      -4.645  90.302 116.244  0.00  0.00    -0.241 OA
ENDBRANCH   3  22
TORSDOF 7
ENDMDL
MODEL 4
REMARK VINA RESULT:      -5.2      1.954      4.782
REMARK  7 active torsions:
REMARK  status: ('A' for Active; 'I' for Inactive)
REMARK    1  A    between atoms: C_2  and  C_3 
REMARK    2  A    between atoms: C_3  and  O_6 
REMARK    3  A    between atoms: C_3  and  C_4 
REMARK    4  A    between atoms: C_7  and  O_6 
REMARK    5  A    between atoms: C_9  and  C_10 
REMARK    6  A    between atoms: N_15  and  C_14 
REMARK    7  A    between atoms: N_20  and  C_19 
REMARK       I    between atoms: C_22  and  N_20 
ROOT
ATOM      1  C   LIG d   1      -4.940  92.568 117.724  0.00  0.00     0.161 C 
ATOM      2  C   LIG d   1      -4.225  91.384 117.481  0.00  0.00     0.016 C 
ATOM      3  C   LIG d   1      -3.071  91.009 118.208  0.00  0.00     0.038 C 
ATOM      4  C   LIG d   1      -2.640  91.724 119.334  0.00  0.00     0.028 C 
ATOM      5  C   LIG d   1      -3.034  93.197 119.304  0.00  0.00    -0.047 C 
ATOM      6  C   LIG d   1      -4.549  93.305 119.022  0.00  0.00     0.091 C 
ENDROOT
BRANCH   1   7
ATOM      7  O   LIG d   1      -6.356  92.296 117.710  0.00  0.00    -0.368 OA
BRANCH   7   8
ATOM      8  C   LIG d   1      -7.135  93.023 116.728  0.00  0.00     0.119 C 
BRANCH   8   9
ATOM      9  C   LIG d   1      -8.495  93.356 117.372  0.00  0.00     0.028 C 
ATOM     10  C   LIG d   1      -8.441  93.324 118.908  0.00  0.00     0.006 C 
ENDBRANCH   8   9
BRANCH   8  11
ATOM     11  C   LIG d   1      -7.463  92.146 115.516  0.00  0.00     0.028 C 
ATOM     12  C   LIG d   1      -7.561  90.654 115.870  0.00  0.00     0.006 C 
ENDBRANCH   8  11
ENDBRANCH   7   8
ENDBRANCH   1   7
BRANCH   6  13
ATOM     13  N   LIG d   1      -5.003  94.715 118.893  0.00  0.00    -0.311 N 
ATOM     14  C   LIG d   1      -5.520  95.414 119.901  0.00  0.00     0.210 C 
ATOM     15  C   LIG d   1      -5.941  96.844 119.548  0.00  0.00     0.109 C 
ATOM     16  O   LIG d   1      -5.640  94.997 121.063  0.00  0.00    -0.276 OA
ATOM     17  H   LIG d   1      -4.913  95.142 117.992  0.00  0.00     0.149 HD
ENDBRANCH   6  13
BRANCH   5  18
ATOM     18  N   LIG d   1      -2.643  93.789 120.598  0.00  0.00     0.381 N 
ATOM     19  H   LIG d   1      -3.440  94.208 121.033  0.00  0.00    -0.090 HD
ATOM     20  H   LIG d   1      -1.960  94.508 120.433  0.00  0.00    -0.090 HD
ATOM     21  H   LIG d   1      -2.260  93.087 121.192  0.00  0.00    -0.090 HD
ENDBRANCH   5  18
BRANCH   3  22
ATOM     22  C   LIG d   1      -2.313  89.928 117.783  0.00  0.00     0.382 C 
ATOM     23  O   LIG d   1      -2.726  88.759 117.973  0.00  0.00    -0.241 OA
ATOM     24  O   LIG d   1      -1.201  90.107 117.252  0.00  0.00    -0.241 OA
ENDBRANCH   3  22
TORSDOF 7
ENDMDL
MODEL 5
REMARK VINA RESULT:      -5.0      2.571      6.477
REMARK  7 active torsions:
REMARK  status: ('A' for Active; 'I' for Inactive)
REMARK    1  A    between atoms: C_2  and  C_3 
REMARK    2  A    between atoms: C_3  and  O_6 
REMARK    3  A    between atoms: C_3  and  C_4 
REMARK    4  A    between atoms: C_7  and  O_6 
REMARK    5  A    between atoms: C_9  and  C_10 
REMARK    6  A    between atoms: N_15  and  C_14 
REMARK    7  A    between atoms: N_20  and  C_19 
REMARK       I    between atoms: C_22  and  N_20 
ROOT
ATOM      1  C   LIG d   1      -5.318  93.072 118.832  0.00  0.00     0.161 C 
ATOM      2  C   LIG d   1      -4.321  93.660 119.628  0.00  0.00     0.016 C 
ATOM      3  C   LIG d   1      -2.954  93.308 119.548  0.00  0.00     0.038 C 
ATOM      4  C   LIG d   1      -2.467  92.447 118.553  0.00  0.00     0.028 C 
ATOM      5  C   LIG d   1      -3.505  91.447 118.056  0.00  0.00    -0.047 C 
ATOM      6  C   LIG d   1      -4.791  92.212 117.665  0.00  0.00     0.091 C 
ENDROOT
BRANCH   1   7
ATOM      7  O   LIG d   1      -6.213  94.090 118.340  0.00  0.00    -0.368 OA
BRANCH   7   8
ATOM      8  C   LIG d   1      -7.149  94.635 119.302  0.00  0.00     0.119 C 
BRANCH   8   9
ATOM      9  C   LIG d   1      -8.190  93.541 119.606  0.00  0.00     0.028 C 
ATOM     10  C   LIG d   1      -9.133  93.282 118.418  0.00  0.00     0.006 C 
ENDBRANCH   8   9
BRANCH   8  11
ATOM     11  C   LIG d   1      -7.946  95.799 118.706  0.00  0.00     0.028 C 
ATOM     12  C   LIG d   1      -8.375  96.830 119.762  0.00  0.00     0.006 C 
ENDBRANCH   8  11
ENDBRANCH   7   8
ENDBRANCH   1   7
BRANCH   6  13
ATOM     13  N   LIG d   1      -5.887  91.300 117.246  0.00  0.00    -0.311 N 
ATOM     14  C   LIG d   1      -6.677  91.536 116.200  0.00  0.00     0.210 C 
ATOM     15  C   LIG d   1      -7.758  90.478 115.955  0.00  0.00     0.109 C 
ATOM     16  O   LIG d   1      -6.565  92.503 115.432  0.00  0.00    -0.276 OA
ATOM     17  H   LIG d   1      -6.029  90.475 117.795  0.00  0.00     0.149 HD
ENDBRANCH   6  13
BRANCH   5  18
ATOM     18  N   LIG d   1      -2.907  90.707 116.929  0.00  0.00     0.381 N 
ATOM     19  H   LIG d   1      -1.915  90.661 117.042  0.00  0.00    -0.090 HD
ATOM     20  H   LIG d   1      -3.105  91.199 116.075  0.00  0.00    -0.090 HD
ATOM     21  H   LIG d   1      -3.287  89.787 116.885  0.00  0.00    -0.090 HD
ENDBRANCH   5  18
BRANCH   3  22
ATOM     22  C   LIG d   1      -2.064  93.789 120.496  0.00  0.00     0.382 C 
ATOM     23  O   LIG d   1      -1.406  94.833 120.265  0.00  0.00    -0.241 OA
ATOM     24  O   LIG d   1      -1.877  93.170 121.560  0.00  0.00    -0.241 OA
ENDBRANCH   3  22
TORSDOF 7
ENDMDL
MODEL 6
REMARK VINA RESULT:      -4.9      1.741      2.322
REMARK  7 active torsions:
REMARK  status: ('A' for Active; 'I' for Inactive)
REMARK    1  A    between atoms: C_2  and  C_3 
REMARK    2  A    between atoms: C_3  and  O_6 
REMARK    3  A    between atoms: C_3  and  C_4 
REMARK    4  A    between atoms: C_7  and  O_6 
REMARK    5  A    between atoms: C_9  and  C_10 
REMARK    6  A    between atoms: N_15  and  C_14 
REMARK    7  A    between atoms: N_20  and  C_19 
REMARK       I    between atoms: C_22  and  N_20 
ROOT
ATOM      1  C   LIG d   1      -5.758  93.141 118.650  0.00  0.00     0.161 C 
ATOM      2  C   LIG d   1      -5.843  92.143 117.666  0.00  0.00     0.016 C 
ATOM      3  C   LIG d   1      -6.848  92.115 116.671  0.00  0.00     0.038 C 
ATOM      4  C   LIG d   1      -7.751  93.174 116.500  0.00  0.00     0.028 C 
ATOM      5  C   LIG d   1      -8.019  93.954 117.782  0.00  0.00    -0.047 C 
ATOM      6  C   LIG d   1      -6.668  94.364 118.412  0.00  0.00     0.091 C 
ENDROOT
BRANCH   1   7
ATOM      7  O   LIG d   1      -4.387  93.559 118.804  0.00  0.00    -0.368 OA
BRANCH   7   8
ATOM      8  C   LIG d   1      -3.469  92.560 119.311  0.00  0.00     0.119 C 
BRANCH   8   9
ATOM      9  C   LIG d   1      -2.887  93.095 120.634  0.00  0.00     0.028 C 
ATOM     10  C   LIG d   1      -2.706  94.622 120.621  0.00  0.00     0.006 C 
ENDBRANCH   8   9
BRANCH   8  11
ATOM     11  C   LIG d   1      -2.265  92.385 118.380  0.00  0.00     0.028 C 
ATOM     12  C   LIG d   1      -2.063  90.928 117.936  0.00  0.00     0.006 C 
ENDBRANCH   8  11
ENDBRANCH   7   8
ENDBRANCH   1   7
BRANCH   6  13
ATOM     13  N   LIG d   1      -6.837  95.059 119.715  0.00  0.00    -0.311 N 
ATOM     14  C   LIG d   1      -6.977  96.379 119.828  0.00  0.00     0.210 C 
ATOM     15  C   LIG d   1      -7.117  96.892 121.265  0.00  0.00     0.109 C 
ATOM     16  O   LIG d   1      -7.029  97.169 118.874  0.00  0.00    -0.276 OA
ATOM     17  H   LIG d   1      -6.838  94.490 120.539  0.00  0.00     0.149 HD
ENDBRANCH   6  13
BRANCH   5  18
ATOM     18  N   LIG d   1      -8.867  95.109 117.432  0.00  0.00     0.381 N 
ATOM     19  H   LIG d   1      -8.668  95.405 116.497  0.00  0.00    -0.090 HD
ATOM     20  H   LIG d   1      -8.656  95.869 118.055  0.00  0.00    -0.090 HD
ATOM     21  H   LIG d   1      -9.829  94.863 117.512  0.00  0.00    -0.090 HD
ENDBRANCH   5  18
BRANCH   3  22
ATOM     22  C   LIG d   1      -6.980  90.999 115.858  0.00  0.00     0.382 C 
ATOM     23  O   LIG d   1      -5.962  90.351 115.513  0.00  0.00    -0.241 OA
ATOM     24  O   LIG d   1      -8.098  90.658 115.430  0.00  0.00    -0.241 OA
ENDBRANCH   3  22
TORSDOF 7
ENDMDL
MODEL 7
REMARK VINA RESULT:      -4.9      2.825      4.961
REMARK  7 active torsions:
REMARK  status: ('A' for Active; 'I' for Inactive)
REMARK    1  A    between atoms: C_2  and  C_3 
REMARK    2  A    between atoms: C_3  and  O_6 
REMARK    3  A    between atoms: C_3  and  C_4 
REMARK    4  A    between atoms: C_7  and  O_6 
REMARK    5  A    between atoms: C_9  and  C_10 
REMARK    6  A    between atoms: N_15  and  C_14 
REMARK    7  A    between atoms: N_20  and  C_19 
REMARK       I    between atoms: C_22  and  N_20 
ROOT
ATOM      1  C   LIG d   1      -6.432  93.550 118.941  0.00  0.00     0.161 C 
ATOM      2  C   LIG d   1      -5.740  92.540 118.252  0.00  0.00     0.016 C 
ATOM      3  C   LIG d   1      -6.100  92.093 116.960  0.00  0.00     0.038 C 
ATOM      4  C   LIG d   1      -7.090  92.736 116.202  0.00  0.00     0.028 C 
ATOM      5  C   LIG d   1      -8.149  93.430 117.053  0.00  0.00    -0.047 C 
ATOM      6  C   LIG d   1      -7.445  94.339 118.086  0.00  0.00     0.091 C 
ENDROOT
BRANCH   1   7
ATOM      7  O   LIG d   1      -5.492  94.450 119.562  0.00  0.00    -0.368 OA
BRANCH   7   8
ATOM      8  C   LIG d   1      -5.475  94.455 121.010  0.00  0.00     0.119 C 
BRANCH   8   9
ATOM      9  C   LIG d   1      -6.421  93.335 121.488  0.00  0.00     0.028 C 
ATOM     10  C   LIG d   1      -7.470  93.842 122.492  0.00  0.00     0.006 C 
ENDBRANCH   8   9
BRANCH   8  11
ATOM     11  C   LIG d   1      -6.068  95.752 121.570  0.00  0.00     0.028 C 
ATOM     12  C   LIG d   1      -5.774  96.972 120.683  0.00  0.00     0.006 C 
ENDBRANCH   8  11
ENDBRANCH   7   8
ENDBRANCH   1   7
BRANCH   6  13
ATOM     13  N   LIG d   1      -8.406  94.991 119.014  0.00  0.00    -0.311 N 
ATOM     14  C   LIG d   1      -9.553  94.431 119.394  0.00  0.00     0.210 C 
ATOM     15  C   LIG d   1     -10.406  95.282 120.340  0.00  0.00     0.109 C 
ATOM     16  O   LIG d   1      -9.931  93.297 119.063  0.00  0.00    -0.276 OA
ATOM     17  H   LIG d   1      -8.164  95.900 119.357  0.00  0.00     0.149 HD
ENDBRANCH   6  13
BRANCH   5  18
ATOM     18  N   LIG d   1      -9.038  94.172 116.140  0.00  0.00     0.381 N 
ATOM     19  H   LIG d   1      -9.152  95.111 116.467  0.00  0.00    -0.090 HD
ATOM     20  H   LIG d   1      -9.939  93.729 116.132  0.00  0.00    -0.090 HD
ATOM     21  H   LIG d   1      -8.654  94.178 115.220  0.00  0.00    -0.090 HD
ENDBRANCH   5  18
BRANCH   3  22
ATOM     22  C   LIG d   1      -5.492  90.966 116.429  0.00  0.00     0.382 C 
ATOM     23  O   LIG d   1      -4.377  90.591 116.864  0.00  0.00    -0.241 OA
ATOM     24  O   LIG d   1      -6.024  90.345 115.489  0.00  0.00    -0.241 OA
ENDBRANCH   3  22
TORSDOF 7
ENDMDL
MODEL 8
REMARK VINA RESULT:      -4.9      2.252      4.794
REMARK  7 active torsions:
REMARK  status: ('A' for Active; 'I' for Inactive)
REMARK    1  A    between atoms: C_2  and  C_3 
REMARK    2  A    between atoms: C_3  and  O_6 
REMARK    3  A    between atoms: C_3  and  C_4 
REMARK    4  A    between atoms: C_7  and  O_6 
REMARK    5  A    between atoms: C_9  and  C_10 
REMARK    6  A    between atoms: N_15  and  C_14 
REMARK    7  A    between atoms: N_20  and  C_19 
REMARK       I    between atoms: C_22  and  N_20 
ROOT
ATOM      1  C   LIG d   1      -6.284  93.674 118.511  0.00  0.00     0.161 C 
ATOM      2  C   LIG d   1      -6.924  92.812 117.605  0.00  0.00     0.016 C 
ATOM      3  C   LIG d   1      -6.258  91.772 116.918  0.00  0.00     0.038 C 
ATOM      4  C   LIG d   1      -4.929  91.425 117.207  0.00  0.00     0.028 C 
ATOM      5  C   LIG d   1      -4.102  92.588 117.744  0.00  0.00    -0.047 C 
ATOM      6  C   LIG d   1      -4.862  93.241 118.922  0.00  0.00     0.091 C 
ENDROOT
BRANCH   1   7
ATOM      7  O   LIG d   1      -7.110  93.856 119.679  0.00  0.00    -0.368 OA
BRANCH   7   8
ATOM      8  C   LIG d   1      -8.368  94.542 119.469  0.00  0.00     0.119 C 
BRANCH   8   9
ATOM      9  C   LIG d   1      -8.207  95.978 120.004  0.00  0.00     0.028 C 
ATOM     10  C   LIG d   1      -7.963  96.999 118.879  0.00  0.00     0.006 C 
ENDBRANCH   8   9
BRANCH   8  11
ATOM     11  C   LIG d   1      -9.488  93.921 120.309  0.00  0.00     0.028 C 
ATOM     12  C   LIG d   1      -9.057  93.628 121.755  0.00  0.00     0.006 C 
ENDBRANCH   8  11
ENDBRANCH   7   8
ENDBRANCH   1   7
BRANCH   6  13
ATOM     13  N   LIG d   1      -4.162  94.440 119.452  0.00  0.00    -0.311 N 
ATOM     14  C   LIG d   1      -3.311  94.399 120.477  0.00  0.00     0.210 C 
ATOM     15  C   LIG d   1      -2.715  95.752 120.877  0.00  0.00     0.109 C 
ATOM     16  O   LIG d   1      -2.969  93.366 121.071  0.00  0.00    -0.276 OA
ATOM     17  H   LIG d   1      -4.357  95.316 119.008  0.00  0.00     0.149 HD
ENDBRANCH   6  13
BRANCH   5  18
ATOM     18  N   LIG d   1      -2.783  92.055 118.132  0.00  0.00     0.381 N 
ATOM     19  H   LIG d   1      -2.790  91.804 119.100  0.00  0.00    -0.090 HD
ATOM     20  H   LIG d   1      -2.091  92.771 117.996  0.00  0.00    -0.090 HD
ATOM     21  H   LIG d   1      -2.560  91.258 117.576  0.00  0.00    -0.090 HD
ENDBRANCH   5  18
BRANCH   3  22
ATOM     22  C   LIG d   1      -6.910  91.091 115.901  0.00  0.00     0.382 C 
ATOM     23  O   LIG d   1      -7.981  91.544 115.431  0.00  0.00    -0.241 OA
ATOM     24  O   LIG d   1      -6.464  90.008 115.479  0.00  0.00    -0.241 OA
ENDBRANCH   3  22
TORSDOF 7
ENDMDL
MODEL 9
REMARK VINA RESULT:      -4.9      3.236      6.482
REMARK  7 active torsions:
REMARK  status: ('A' for Active; 'I' for Inactive)
REMARK    1  A    between atoms: C_2  and  C_3 
REMARK    2  A    between atoms: C_3  and  O_6 
REMARK    3  A    between atoms: C_3  and  C_4 
REMARK    4  A    between atoms: C_7  and  O_6 
REMARK    5  A    between atoms: C_9  and  C_10 
REMARK    6  A    between atoms: N_15  and  C_14 
REMARK    7  A    between atoms: N_20  and  C_19 
REMARK       I    between atoms: C_22  and  N_20 
ROOT
ATOM      1  C   LIG d   1      -0.148  91.185 117.272  0.00  0.00     0.161 C 
ATOM      2  C   LIG d   1       1.247  91.200 117.435  0.00  0.00     0.016 C 
ATOM      3  C   LIG d   1       1.911  92.016 118.380  0.00  0.00     0.038 C 
ATOM      4  C   LIG d   1       1.209  92.766 119.335  0.00  0.00     0.028 C 
ATOM      5  C   LIG d   1      -0.189  93.170 118.880  0.00  0.00    -0.047 C 
ATOM      6  C   LIG d   1      -0.937  91.913 118.380  0.00  0.00     0.091 C 
ENDROOT
BRANCH   1   7
ATOM      7  O   LIG d   1      -0.610  89.826 117.139  0.00  0.00    -0.368 OA
BRANCH   7   8
ATOM      8  C   LIG d   1      -0.792  89.091 118.374  0.00  0.00     0.119 C 
BRANCH   8   9
ATOM      9  C   LIG d   1       0.051  87.805 118.276  0.00  0.00     0.028 C 
ATOM     10  C   LIG d   1       0.572  87.551 116.852  0.00  0.00     0.006 C 
ENDBRANCH   8   9
BRANCH   8  11
ATOM     11  C   LIG d   1      -2.240  88.615 118.532  0.00  0.00     0.028 C 
ATOM     12  C   LIG d   1      -2.460  87.789 119.809  0.00  0.00     0.006 C 
ENDBRANCH   8  11
ENDBRANCH   7   8
ENDBRANCH   1   7
BRANCH   6  13
ATOM     13  N   LIG d   1      -2.283  92.233 117.839  0.00  0.00    -0.311 N 
ATOM     14  C   LIG d   1      -3.390  92.240 118.580  0.00  0.00     0.210 C 
ATOM     15  C   LIG d   1      -4.676  92.576 117.820  0.00  0.00     0.109 C 
ATOM     16  O   LIG d   1      -3.423  92.031 119.803  0.00  0.00    -0.276 OA
ATOM     17  H   LIG d   1      -2.344  92.445 116.862  0.00  0.00     0.149 HD
ENDBRANCH   6  13
BRANCH   5  18
ATOM     18  N   LIG d   1      -0.857  93.825 120.021  0.00  0.00     0.381 N 
ATOM     19  H   LIG d   1      -1.831  93.600 120.017  0.00  0.00    -0.090 HD
ATOM     20  H   LIG d   1      -0.762  94.821 119.924  0.00  0.00    -0.090 HD
ATOM     21  H   LIG d   1      -0.442  93.526 120.876  0.00  0.00    -0.090 HD
ENDBRANCH   5  18
BRANCH   3  22
ATOM     22  C   LIG d   1       3.294  92.118 118.348  0.00  0.00     0.382 C 
ATOM     23  O   LIG d   1       3.874  92.448 117.286  0.00  0.00    -0.241 OA
ATOM     24  O   LIG d   1       3.971  91.841 119.356  0.00  0.00    -0.241 OA
ENDBRANCH   3  22
TORSDOF 7
ENDMDL
