MODEL 1
REMARK VINA RESULT:      -4.2      0.000      0.000
REMARK  7 active torsions:
REMARK  status: ('A' for Active; 'I' for Inactive)
REMARK    1  A    between atoms: C_2  and  C_3 
REMARK    2  A    between atoms: C_3  and  O_6 
REMARK    3  A    between atoms: C_3  and  C_4 
REMARK    4  A    between atoms: C_7  and  O_6 
REMARK    5  A    between atoms: C_9  and  C_10 
REMARK    6  A    between atoms: N_15  and  C_14 
REMARK    7  A    between atoms: N_20  and  C_19 
REMARK       I    between atoms: C_22  and  N_20 
ROOT
ATOM      1  C   LIG d   1       2.774  90.132 116.822  0.00  0.00     0.161 C 
ATOM      2  C   LIG d   1       4.061  89.675 116.490  0.00  0.00     0.016 C 
ATOM      3  C   LIG d   1       5.245  90.226 117.032  0.00  0.00     0.038 C 
ATOM      4  C   LIG d   1       5.217  91.176 118.063  0.00  0.00     0.028 C 
ATOM      5  C   LIG d   1       3.951  92.025 118.070  0.00  0.00    -0.047 C 
ATOM      6  C   LIG d   1       2.719  91.092 118.028  0.00  0.00     0.091 C 
ENDROOT
BRANCH   1   7
ATOM      7  O   LIG d   1       1.897  89.008 117.035  0.00  0.00    -0.368 OA
BRANCH   7   8
ATOM      8  C   LIG d   1       2.488  87.696 116.863  0.00  0.00     0.119 C 
BRANCH   8   9
ATOM      9  C   LIG d   1       1.652  86.946 115.808  0.00  0.00     0.028 C 
ATOM     10  C   LIG d   1       1.001  85.673 116.373  0.00  0.00     0.006 C 
ENDBRANCH   8   9
BRANCH   8  11
ATOM     11  C   LIG d   1       2.373  86.861 118.141  0.00  0.00     0.028 C 
ATOM     12  C   LIG d   1       3.281  87.371 119.271  0.00  0.00     0.006 C 
ENDBRANCH   8  11
ENDBRANCH   7   8
ENDBRANCH   1   7
BRANCH   6  13
ATOM     13  N   LIG d   1       1.440  91.844 117.947  0.00  0.00    -0.311 N 
ATOM     14  C   LIG d   1       0.744  92.224 119.017  0.00  0.00     0.210 C 
ATOM     15  C   LIG d   1      -0.557  92.971 118.710  0.00  0.00     0.109 C 
ATOM     16  O   LIG d   1       1.097  92.042 120.192  0.00  0.00    -0.276 OA
ATOM     17  H   LIG d   1       1.096  92.061 117.032  0.00  0.00     0.149 HD
ENDBRANCH   6  13
BRANCH   5  18
ATOM     18  N   LIG d   1       3.991  92.876 119.275  0.00  0.00     0.381 N 
ATOM     19  H   LIG d   1       3.752  92.333 120.080  0.00  0.00    -0.090 HD
ATOM     20  H   LIG d   1       3.312  93.610 119.177  0.00  0.00    -0.090 HD
ATOM     21  H   LIG d   1       4.900  93.267 119.386  0.00  0.00    -0.090 HD
ENDBRANCH   5  18
BRANCH   3  22
ATOM     22  C   LIG d   1       6.476  89.854 116.512  0.00  0.00     0.382 C 
ATOM     23  O   LIG d   1       6.539  88.980 115.614  0.00  0.00    -0.241 OA
ATOM     24  O   LIG d   1       7.527  90.350 116.961  0.00  0.00    -0.241 OA
ENDBRANCH   3  22
TORSDOF 7
ENDMDL
MODEL 2
REMARK VINA RESULT:      -4.2      5.333      8.682
REMARK  7 active torsions:
REMARK  status: ('A' for Active; 'I' for Inactive)
REMARK    1  A    between atoms: C_2  and  C_3 
REMARK    2  A    between atoms: C_3  and  O_6 
REMARK    3  A    between atoms: C_3  and  C_4 
REMARK    4  A    between atoms: C_7  and  O_6 
REMARK    5  A    between atoms: C_9  and  C_10 
REMARK    6  A    between atoms: N_15  and  C_14 
REMARK    7  A    between atoms: N_20  and  C_19 
REMARK       I    between atoms: C_22  and  N_20 
ROOT
ATOM      1  C   LIG d   1      -2.242  93.841 121.117  0.00  0.00     0.161 C 
ATOM      2  C   LIG d   1      -0.938  93.717 120.608  0.00  0.00     0.016 C 
ATOM      3  C   LIG d   1      -0.601  92.869 119.529  0.00  0.00     0.038 C 
ATOM      4  C   LIG d   1      -1.579  92.196 118.782  0.00  0.00     0.028 C 
ATOM      5  C   LIG d   1      -2.848  91.897 119.574  0.00  0.00    -0.047 C 
ATOM      6  C   LIG d   1      -3.340  93.200 120.243  0.00  0.00     0.091 C 
ENDROOT
BRANCH   1   7
ATOM      7  O   LIG d   1      -2.542  95.230 121.359  0.00  0.00    -0.368 OA
BRANCH   7   8
ATOM      8  C   LIG d   1      -2.474  96.107 120.208  0.00  0.00     0.119 C 
BRANCH   8   9
ATOM      9  C   LIG d   1      -1.833  97.430 120.671  0.00  0.00     0.028 C 
ATOM     10  C   LIG d   1      -1.330  97.361 122.123  0.00  0.00     0.006 C 
ENDBRANCH   8   9
BRANCH   8  11
ATOM     11  C   LIG d   1      -3.872  96.486 119.712  0.00  0.00     0.028 C 
ATOM     12  C   LIG d   1      -4.852  96.780 120.859  0.00  0.00     0.006 C 
ENDBRANCH   8  11
ENDBRANCH   7   8
ENDBRANCH   1   7
BRANCH   6  13
ATOM     13  N   LIG d   1      -4.530  92.979 121.106  0.00  0.00    -0.311 N 
ATOM     14  C   LIG d   1      -5.778  93.226 120.712  0.00  0.00     0.210 C 
ATOM     15  C   LIG d   1      -6.856  92.948 121.764  0.00  0.00     0.109 C 
ATOM     16  O   LIG d   1      -6.097  93.618 119.579  0.00  0.00    -0.276 OA
ATOM     17  H   LIG d   1      -4.364  92.632 122.031  0.00  0.00     0.149 HD
ENDBRANCH   6  13
BRANCH   5  18
ATOM     18  N   LIG d   1      -3.831  91.319 118.638  0.00  0.00     0.381 N 
ATOM     19  H   LIG d   1      -4.759  91.503 118.966  0.00  0.00    -0.090 HD
ATOM     20  H   LIG d   1      -3.701  90.323 118.603  0.00  0.00    -0.090 HD
ATOM     21  H   LIG d   1      -3.708  91.710 117.730  0.00  0.00    -0.090 HD
ENDBRANCH   5  18
BRANCH   3  22
ATOM     22  C   LIG d   1       0.732  92.656 119.213  0.00  0.00     0.382 C 
ATOM     23  O   LIG d   1       1.042  91.803 118.346  0.00  0.00    -0.241 OA
ATOM     24  O   LIG d   1       1.630  93.273 119.814  0.00  0.00    -0.241 OA
ENDBRANCH   3  22
TORSDOF 7
ENDMDL
MODEL 3
REMARK VINA RESULT:      -4.1      2.116      5.034
REMARK  7 active torsions:
REMARK  status: ('A' for Active; 'I' for Inactive)
REMARK    1  A    between atoms: C_2  and  C_3 
REMARK    2  A    between atoms: C_3  and  O_6 
REMARK    3  A    between atoms: C_3  and  C_4 
REMARK    4  A    between atoms: C_7  and  O_6 
REMARK    5  A    between atoms: C_9  and  C_10 
REMARK    6  A    between atoms: N_15  and  C_14 
REMARK    7  A    between atoms: N_20  and  C_19 
REMARK       I    between atoms: C_22  and  N_20 
ROOT
ATOM      1  C   LIG d   1       3.469  90.923 117.715  0.00  0.00     0.161 C 
ATOM      2  C   LIG d   1       2.186  91.483 117.828  0.00  0.00     0.016 C 
ATOM      3  C   LIG d   1       1.807  92.355 118.874  0.00  0.00     0.038 C 
ATOM      4  C   LIG d   1       2.736  92.849 119.801  0.00  0.00     0.028 C 
ATOM      5  C   LIG d   1       3.923  91.918 120.024  0.00  0.00    -0.047 C 
ATOM      6  C   LIG d   1       4.528  91.538 118.654  0.00  0.00     0.091 C 
ENDROOT
BRANCH   1   7
ATOM      7  O   LIG d   1       3.913  90.991 116.345  0.00  0.00    -0.368 OA
BRANCH   7   8
ATOM      8  C   LIG d   1       4.061  89.724 115.659  0.00  0.00     0.119 C 
BRANCH   8   9
ATOM      9  C   LIG d   1       3.529  88.624 116.598  0.00  0.00     0.028 C 
ATOM     10  C   LIG d   1       2.260  87.949 116.052  0.00  0.00     0.006 C 
ENDBRANCH   8   9
BRANCH   8  11
ATOM     11  C   LIG d   1       5.537  89.383 115.430  0.00  0.00     0.028 C 
ATOM     12  C   LIG d   1       5.960  88.075 116.118  0.00  0.00     0.006 C 
ENDBRANCH   8  11
ENDBRANCH   7   8
ENDBRANCH   1   7
BRANCH   6  13
ATOM     13  N   LIG d   1       5.642  90.562 118.777  0.00  0.00    -0.311 N 
ATOM     14  C   LIG d   1       6.926  90.913 118.800  0.00  0.00     0.210 C 
ATOM     15  C   LIG d   1       7.914  89.748 118.912  0.00  0.00     0.109 C 
ATOM     16  O   LIG d   1       7.340  92.082 118.770  0.00  0.00    -0.276 OA
ATOM     17  H   LIG d   1       5.395  89.593 118.838  0.00  0.00     0.149 HD
ENDBRANCH   6  13
BRANCH   5  18
ATOM     18  N   LIG d   1       4.878  92.616 120.905  0.00  0.00     0.381 N 
ATOM     19  H   LIG d   1       4.575  93.557 121.055  0.00  0.00    -0.090 HD
ATOM     20  H   LIG d   1       5.776  92.642 120.454  0.00  0.00    -0.090 HD
ATOM     21  H   LIG d   1       4.950  92.139 121.777  0.00  0.00    -0.090 HD
ENDBRANCH   5  18
BRANCH   3  22
ATOM     22  C   LIG d   1       0.475  92.710 119.024  0.00  0.00     0.382 C 
ATOM     23  O   LIG d   1       0.173  93.786 119.595  0.00  0.00    -0.241 OA
ATOM     24  O   LIG d   1      -0.430  91.948 118.635  0.00  0.00    -0.241 OA
ENDBRANCH   3  22
TORSDOF 7
ENDMDL
MODEL 4
REMARK VINA RESULT:      -4.1      2.030      3.202
REMARK  7 active torsions:
REMARK  status: ('A' for Active; 'I' for Inactive)
REMARK    1  A    between atoms: C_2  and  C_3 
REMARK    2  A    between atoms: C_3  and  O_6 
REMARK    3  A    between atoms: C_3  and  C_4 
REMARK    4  A    between atoms: C_7  and  O_6 
REMARK    5  A    between atoms: C_9  and  C_10 
REMARK    6  A    between atoms: N_15  and  C_14 
REMARK    7  A    between atoms: N_20  and  C_19 
REMARK       I    between atoms: C_22  and  N_20 
ROOT
ATOM      1  C   LIG d   1       3.281  92.375 117.907  0.00  0.00     0.161 C 
ATOM      2  C   LIG d   1       4.652  92.270 118.196  0.00  0.00     0.016 C 
ATOM      3  C   LIG d   1       5.187  92.426 119.495  0.00  0.00     0.038 C 
ATOM      4  C   LIG d   1       4.366  92.551 120.626  0.00  0.00     0.028 C 
ATOM      5  C   LIG d   1       3.005  93.167 120.320  0.00  0.00    -0.047 C 
ATOM      6  C   LIG d   1       2.359  92.400 119.144  0.00  0.00     0.091 C 
ENDROOT
BRANCH   1   7
ATOM      7  O   LIG d   1       2.888  91.318 117.010  0.00  0.00    -0.368 OA
BRANCH   7   8
ATOM      8  C   LIG d   1       3.704  90.121 117.040  0.00  0.00     0.119 C 
BRANCH   8   9
ATOM      9  C   LIG d   1       4.111  89.802 115.588  0.00  0.00     0.028 C 
ATOM     10  C   LIG d   1       5.625  89.577 115.439  0.00  0.00     0.006 C 
ENDBRANCH   8   9
BRANCH   8  11
ATOM     11  C   LIG d   1       2.897  88.907 117.511  0.00  0.00     0.028 C 
ATOM     12  C   LIG d   1       2.298  88.102 116.347  0.00  0.00     0.006 C 
ENDBRANCH   8  11
ENDBRANCH   7   8
ENDBRANCH   1   7
BRANCH   6  13
ATOM     13  N   LIG d   1       1.062  92.992 118.726  0.00  0.00    -0.311 N 
ATOM     14  C   LIG d   1      -0.107  92.656 119.271  0.00  0.00     0.210 C 
ATOM     15  C   LIG d   1      -1.325  93.371 118.679  0.00  0.00     0.109 C 
ATOM     16  O   LIG d   1      -0.246  91.859 120.210  0.00  0.00    -0.276 OA
ATOM     17  H   LIG d   1       1.086  93.671 117.990  0.00  0.00     0.149 HD
ENDBRANCH   6  13
BRANCH   5  18
ATOM     18  N   LIG d   1       2.203  93.110 121.557  0.00  0.00     0.381 N 
ATOM     19  H   LIG d   1       2.606  92.452 122.193  0.00  0.00    -0.090 HD
ATOM     20  H   LIG d   1       1.274  92.800 121.329  0.00  0.00    -0.090 HD
ATOM     21  H   LIG d   1       2.165  94.011 121.981  0.00  0.00    -0.090 HD
ENDBRANCH   5  18
BRANCH   3  22
ATOM     22  C   LIG d   1       6.561  92.500 119.668  0.00  0.00     0.382 C 
ATOM     23  O   LIG d   1       7.171  93.563 119.401  0.00  0.00    -0.241 OA
ATOM     24  O   LIG d   1       7.205  91.502 120.045  0.00  0.00    -0.241 OA
ENDBRANCH   3  22
TORSDOF 7
ENDMDL
MODEL 5
REMARK VINA RESULT:      -3.9      2.523      4.818
REMARK  7 active torsions:
REMARK  status: ('A' for Active; 'I' for Inactive)
REMARK    1  A    between atoms: C_2  and  C_3 
REMARK    2  A    between atoms: C_3  and  O_6 
REMARK    3  A    between atoms: C_3  and  C_4 
REMARK    4  A    between atoms: C_7  and  O_6 
REMARK    5  A    between atoms: C_9  and  C_10 
REMARK    6  A    between atoms: N_15  and  C_14 
REMARK    7  A    between atoms: N_20  and  C_19 
REMARK       I    between atoms: C_22  and  N_20 
ROOT
ATOM      1  C   LIG d   1       4.610  90.959 119.489  0.00  0.00     0.161 C 
ATOM      2  C   LIG d   1       5.406  90.486 118.432  0.00  0.00     0.016 C 
ATOM      3  C   LIG d   1       4.915  90.278 117.122  0.00  0.00     0.038 C 
ATOM      4  C   LIG d   1       3.625  90.675 116.742  0.00  0.00     0.028 C 
ATOM      5  C   LIG d   1       2.630  90.688 117.898  0.00  0.00    -0.047 C 
ATOM      6  C   LIG d   1       3.229  91.502 119.067  0.00  0.00     0.091 C 
ENDROOT
BRANCH   1   7
ATOM      7  O   LIG d   1       5.334  91.957 120.237  0.00  0.00    -0.368 OA
BRANCH   7   8
ATOM      8  C   LIG d   1       5.951  93.013 119.459  0.00  0.00     0.119 C 
BRANCH   8   9
ATOM      9  C   LIG d   1       7.427  93.104 119.892  0.00  0.00     0.028 C 
ATOM     10  C   LIG d   1       8.392  92.656 118.782  0.00  0.00     0.006 C 
ENDBRANCH   8   9
BRANCH   8  11
ATOM     11  C   LIG d   1       5.344  94.378 119.795  0.00  0.00     0.028 C 
ATOM     12  C   LIG d   1       4.588  94.382 121.133  0.00  0.00     0.006 C 
ENDBRANCH   8  11
ENDBRANCH   7   8
ENDBRANCH   1   7
BRANCH   6  13
ATOM     13  N   LIG d   1       2.356  91.494 120.270  0.00  0.00    -0.311 N 
ATOM     14  C   LIG d   1       1.440  92.429 120.516  0.00  0.00     0.210 C 
ATOM     15  C   LIG d   1       0.662  92.243 121.823  0.00  0.00     0.109 C 
ATOM     16  O   LIG d   1       1.176  93.378 119.762  0.00  0.00    -0.276 OA
ATOM     17  H   LIG d   1       2.482  90.743 120.920  0.00  0.00     0.149 HD
ENDBRANCH   6  13
BRANCH   5  18
ATOM     18  N   LIG d   1       1.364  91.250 117.390  0.00  0.00     0.381 N 
ATOM     19  H   LIG d   1       0.634  90.572 117.475  0.00  0.00    -0.090 HD
ATOM     20  H   LIG d   1       1.475  91.475 116.417  0.00  0.00    -0.090 HD
ATOM     21  H   LIG d   1       1.126  92.071 117.903  0.00  0.00    -0.090 HD
ENDBRANCH   5  18
BRANCH   3  22
ATOM     22  C   LIG d   1       5.707  89.630 116.187  0.00  0.00     0.382 C 
ATOM     23  O   LIG d   1       5.204  88.765 115.430  0.00  0.00    -0.241 OA
ATOM     24  O   LIG d   1       6.928  89.867 116.120  0.00  0.00    -0.241 OA
ENDBRANCH   3  22
TORSDOF 7
ENDMDL
MODEL 6
REMARK VINA RESULT:      -3.8      3.209      6.532
REMARK  7 active torsions:
REMARK  status: ('A' for Active; 'I' for Inactive)
REMARK    1  A    between atoms: C_2  and  C_3 
REMARK    2  A    between atoms: C_3  and  O_6 
REMARK    3  A    between atoms: C_3  and  C_4 
REMARK    4  A    between atoms: C_7  and  O_6 
REMARK    5  A    between atoms: C_9  and  C_10 
REMARK    6  A    between atoms: N_15  and  C_14 
REMARK    7  A    between atoms: N_20  and  C_19 
REMARK       I    between atoms: C_22  and  N_20 
ROOT
ATOM      1  C   LIG d   1       6.091  89.863 116.700  0.00  0.00     0.161 C 
ATOM      2  C   LIG d   1       4.733  90.220 116.760  0.00  0.00     0.016 C 
ATOM      3  C   LIG d   1       3.679  89.282 116.670  0.00  0.00     0.038 C 
ATOM      4  C   LIG d   1       3.914  87.899 116.667  0.00  0.00     0.028 C 
ATOM      5  C   LIG d   1       5.276  87.518 116.097  0.00  0.00    -0.047 C 
ATOM      6  C   LIG d   1       6.368  88.349 116.808  0.00  0.00     0.091 C 
ENDROOT
BRANCH   1   7
ATOM      7  O   LIG d   1       6.829  90.581 117.709  0.00  0.00    -0.368 OA
BRANCH   7   8
ATOM      8  C   LIG d   1       6.045  91.166 118.777  0.00  0.00     0.119 C 
BRANCH   8   9
ATOM      9  C   LIG d   1       6.673  92.531 119.119  0.00  0.00     0.028 C 
ATOM     10  C   LIG d   1       5.644  93.673 119.095  0.00  0.00     0.006 C 
ENDBRANCH   8   9
BRANCH   8  11
ATOM     11  C   LIG d   1       6.149  90.338 120.062  0.00  0.00     0.028 C 
ATOM     12  C   LIG d   1       4.779  89.893 120.597  0.00  0.00     0.006 C 
ENDBRANCH   8  11
ENDBRANCH   7   8
ENDBRANCH   1   7
BRANCH   6  13
ATOM     13  N   LIG d   1       7.723  88.099 116.252  0.00  0.00    -0.311 N 
ATOM     14  C   LIG d   1       8.566  87.197 116.751  0.00  0.00     0.210 C 
ATOM     15  C   LIG d   1       9.920  87.113 116.040  0.00  0.00     0.109 C 
ATOM     16  O   LIG d   1       8.308  86.435 117.696  0.00  0.00    -0.276 OA
ATOM     17  H   LIG d   1       8.002  88.651 115.464  0.00  0.00     0.149 HD
ENDBRANCH   6  13
BRANCH   5  18
ATOM     18  N   LIG d   1       5.444  86.064 116.280  0.00  0.00     0.381 N 
ATOM     19  H   LIG d   1       5.580  85.859 117.250  0.00  0.00    -0.090 HD
ATOM     20  H   LIG d   1       6.261  85.766 115.777  0.00  0.00    -0.090 HD
ATOM     21  H   LIG d   1       4.641  85.582 115.941  0.00  0.00    -0.090 HD
ENDBRANCH   5  18
BRANCH   3  22
ATOM     22  C   LIG d   1       2.372  89.729 116.543  0.00  0.00     0.382 C 
ATOM     23  O   LIG d   1       1.690  89.395 115.544  0.00  0.00    -0.241 OA
ATOM     24  O   LIG d   1       1.881  90.496 117.393  0.00  0.00    -0.241 OA
ENDBRANCH   3  22
TORSDOF 7
ENDMDL
MODEL 7
REMARK VINA RESULT:      -3.8      2.524      4.739
REMARK  7 active torsions:
REMARK  status: ('A' for Active; 'I' for Inactive)
REMARK    1  A    between atoms: C_2  and  C_3 
REMARK    2  A    between atoms: C_3  and  O_6 
REMARK    3  A    between atoms: C_3  and  C_4 
REMARK    4  A    between atoms: C_7  and  O_6 
REMARK    5  A    between atoms: C_9  and  C_10 
REMARK    6  A    between atoms: N_15  and  C_14 
REMARK    7  A    between atoms: N_20  and  C_19 
REMARK       I    between atoms: C_22  and  N_20 
ROOT
ATOM      1  C   LIG d   1       3.012  92.464 118.056  0.00  0.00     0.161 C 
ATOM      2  C   LIG d   1       2.382  91.295 117.596  0.00  0.00     0.016 C 
ATOM      3  C   LIG d   1       3.018  90.033 117.557  0.00  0.00     0.038 C 
ATOM      4  C   LIG d   1       4.285  89.822 118.120  0.00  0.00     0.028 C 
ATOM      5  C   LIG d   1       5.155  91.074 118.137  0.00  0.00    -0.047 C 
ATOM      6  C   LIG d   1       4.357  92.232 118.778  0.00  0.00     0.091 C 
ENDROOT
BRANCH   1   7
ATOM      7  O   LIG d   1       2.111  93.204 118.902  0.00  0.00    -0.368 OA
BRANCH   7   8
ATOM      8  C   LIG d   1       1.049  92.440 119.525  0.00  0.00     0.119 C 
BRANCH   8   9
ATOM      9  C   LIG d   1      -0.280  93.157 119.214  0.00  0.00     0.028 C 
ATOM     10  C   LIG d   1      -1.290  92.239 118.506  0.00  0.00     0.006 C 
ENDBRANCH   8   9
BRANCH   8  11
ATOM     11  C   LIG d   1       1.172  92.457 121.051  0.00  0.00     0.028 C 
ATOM     12  C   LIG d   1       2.192  91.436 121.578  0.00  0.00     0.006 C 
ENDBRANCH   8  11
ENDBRANCH   7   8
ENDBRANCH   1   7
BRANCH   6  13
ATOM     13  N   LIG d   1       5.105  93.516 118.757  0.00  0.00    -0.311 N 
ATOM     14  C   LIG d   1       5.309  94.263 119.841  0.00  0.00     0.210 C 
ATOM     15  C   LIG d   1       6.088  95.559 119.596  0.00  0.00     0.109 C 
ATOM     16  O   LIG d   1       4.947  93.959 120.988  0.00  0.00    -0.276 OA
ATOM     17  H   LIG d   1       5.460  93.823 117.873  0.00  0.00     0.149 HD
ENDBRANCH   6  13
BRANCH   5  18
ATOM     18  N   LIG d   1       6.391  90.748 118.873  0.00  0.00     0.381 N 
ATOM     19  H   LIG d   1       6.286  89.869 119.339  0.00  0.00    -0.090 HD
ATOM     20  H   LIG d   1       6.552  91.456 119.568  0.00  0.00    -0.090 HD
ATOM     21  H   LIG d   1       7.163  90.708 118.244  0.00  0.00    -0.090 HD
ENDBRANCH   5  18
BRANCH   3  22
ATOM     22  C   LIG d   1       2.399  88.972 116.913  0.00  0.00     0.382 C 
ATOM     23  O   LIG d   1       1.913  89.131 115.767  0.00  0.00    -0.241 OA
ATOM     24  O   LIG d   1       2.281  87.870 117.481  0.00  0.00    -0.241 OA
ENDBRANCH   3  22
TORSDOF 7
ENDMDL
MODEL 8
REMARK VINA RESULT:      -3.8      2.254      5.105
REMARK  7 active torsions:
REMARK  status: ('A' for Active; 'I' for Inactive)
REMARK    1  A    between atoms: C_2  and  C_3 
REMARK    2  A    between atoms: C_3  and  O_6 
REMARK    3  A    between atoms: C_3  and  C_4 
REMARK    4  A    between atoms: C_7  and  O_6 
REMARK    5  A    between atoms: C_9  and  C_10 
REMARK    6  A    between atoms: N_15  and  C_14 
REMARK    7  A    between atoms: N_20  and  C_19 
REMARK       I    between atoms: C_22  and  N_20 
ROOT
ATOM      1  C   LIG d   1       4.539  90.831 118.452  0.00  0.00     0.161 C 
ATOM      2  C   LIG d   1       4.837  91.897 119.316  0.00  0.00     0.016 C 
ATOM      3  C   LIG d   1       3.881  92.853 119.731  0.00  0.00     0.038 C 
ATOM      4  C   LIG d   1       2.518  92.719 119.427  0.00  0.00     0.028 C 
ATOM      5  C   LIG d   1       2.258  91.940 118.142  0.00  0.00    -0.047 C 
ATOM      6  C   LIG d   1       3.034  90.604 118.199  0.00  0.00     0.091 C 
ENDROOT
BRANCH   1   7
ATOM      7  O   LIG d   1       5.153  89.621 118.939  0.00  0.00    -0.368 OA
BRANCH   7   8
ATOM      8  C   LIG d   1       6.256  89.106 118.154  0.00  0.00     0.119 C 
BRANCH   8   9
ATOM      9  C   LIG d   1       7.549  89.353 118.956  0.00  0.00     0.028 C 
ATOM     10  C   LIG d   1       8.320  90.588 118.459  0.00  0.00     0.006 C 
ENDBRANCH   8   9
BRANCH   8  11
ATOM     11  C   LIG d   1       6.430  89.893 116.852  0.00  0.00     0.028 C 
ATOM     12  C   LIG d   1       6.156  89.043 115.601  0.00  0.00     0.006 C 
ENDBRANCH   8  11
ENDBRANCH   7   8
ENDBRANCH   1   7
BRANCH   6  13
ATOM     13  N   LIG d   1       2.901  89.818 116.945  0.00  0.00    -0.311 N 
ATOM     14  C   LIG d   1       2.646  88.511 116.922  0.00  0.00     0.210 C 
ATOM     15  C   LIG d   1       2.570  87.891 115.523  0.00  0.00     0.109 C 
ATOM     16  O   LIG d   1       2.444  87.813 117.927  0.00  0.00    -0.276 OA
ATOM     17  H   LIG d   1       3.020  90.312 116.082  0.00  0.00     0.149 HD
ENDBRANCH   6  13
BRANCH   5  18
ATOM     18  N   LIG d   1       0.800  91.757 118.019  0.00  0.00     0.381 N 
ATOM     19  H   LIG d   1       0.578  91.403 117.110  0.00  0.00    -0.090 HD
ATOM     20  H   LIG d   1       0.350  92.649 118.128  0.00  0.00    -0.090 HD
ATOM     21  H   LIG d   1       0.475  91.126 118.718  0.00  0.00    -0.090 HD
ENDBRANCH   5  18
BRANCH   3  22
ATOM     22  C   LIG d   1       4.293  93.980 120.425  0.00  0.00     0.382 C 
ATOM     23  O   LIG d   1       5.383  94.531 120.136  0.00  0.00    -0.241 OA
ATOM     24  O   LIG d   1       3.611  94.427 121.367  0.00  0.00    -0.241 OA
ENDBRANCH   3  22
TORSDOF 7
ENDMDL
MODEL 9
REMARK VINA RESULT:      -3.7      2.308      5.268
REMARK  7 active torsions:
REMARK  status: ('A' for Active; 'I' for Inactive)
REMARK    1  A    between atoms: C_2  and  C_3 
REMARK    2  A    between atoms: C_3  and  O_6 
REMARK    3  A    between atoms: C_3  and  C_4 
REMARK    4  A    between atoms: C_7  and  O_6 
REMARK    5  A    between atoms: C_9  and  C_10 
REMARK    6  A    between atoms: N_15  and  C_14 
REMARK    7  A    between atoms: N_20  and  C_19 
REMARK       I    between atoms: C_22  and  N_20 
ROOT
ATOM      1  C   LIG d   1       4.599  90.094 118.725  0.00  0.00     0.161 C 
ATOM      2  C   LIG d   1       3.328  90.682 118.830  0.00  0.00     0.016 C 
ATOM      3  C   LIG d   1       3.126  92.046 119.144  0.00  0.00     0.038 C 
ATOM      4  C   LIG d   1       4.192  92.954 119.225  0.00  0.00     0.028 C 
ATOM      5  C   LIG d   1       5.513  92.304 119.624  0.00  0.00    -0.047 C 
ATOM      6  C   LIG d   1       5.775  91.093 118.700  0.00  0.00     0.091 C 
ENDROOT
BRANCH   1   7
ATOM      7  O   LIG d   1       4.646  89.237 117.567  0.00  0.00    -0.368 OA
BRANCH   7   8
ATOM      8  C   LIG d   1       4.787  89.901 116.287  0.00  0.00     0.119 C 
BRANCH   8   9
ATOM      9  C   LIG d   1       3.564  89.520 115.430  0.00  0.00     0.028 C 
ATOM     10  C   LIG d   1       2.841  88.271 115.962  0.00  0.00     0.006 C 
ENDBRANCH   8   9
BRANCH   8  11
ATOM     11  C   LIG d   1       6.002  89.375 115.517  0.00  0.00     0.028 C 
ATOM     12  C   LIG d   1       6.624  88.128 116.165  0.00  0.00     0.006 C 
ENDBRANCH   8  11
ENDBRANCH   7   8
ENDBRANCH   1   7
BRANCH   6  13
ATOM     13  N   LIG d   1       7.005  90.349 119.076  0.00  0.00    -0.311 N 
ATOM     14  C   LIG d   1       8.196  90.575 118.525  0.00  0.00     0.210 C 
ATOM     15  C   LIG d   1       9.329  89.683 119.043  0.00  0.00     0.109 C 
ATOM     16  O   LIG d   1       8.429  91.452 117.679  0.00  0.00    -0.276 OA
ATOM     17  H   LIG d   1       6.914  89.640 119.777  0.00  0.00     0.149 HD
ENDBRANCH   6  13
BRANCH   5  18
ATOM     18  N   LIG d   1       6.563  93.337 119.535  0.00  0.00     0.381 N 
ATOM     19  H   LIG d   1       7.091  93.212 118.695  0.00  0.00    -0.090 HD
ATOM     20  H   LIG d   1       7.186  93.234 120.317  0.00  0.00    -0.090 HD
ATOM     21  H   LIG d   1       6.151  94.244 119.546  0.00  0.00    -0.090 HD
ENDBRANCH   5  18
BRANCH   3  22
ATOM     22  C   LIG d   1       1.847  92.506 119.419  0.00  0.00     0.382 C 
ATOM     23  O   LIG d   1       1.661  93.317 120.358  0.00  0.00    -0.241 OA
ATOM     24  O   LIG d   1       0.871  92.086 118.769  0.00  0.00    -0.241 OA
ENDBRANCH   3  22
TORSDOF 7
ENDMDL
