MODEL 1
REMARK VINA RESULT:      -6.0      0.000      0.000
REMARK  7 active torsions:
REMARK  status: ('A' for Active; 'I' for Inactive)
REMARK    1  A    between atoms: C_2  and  C_3 
REMARK    2  A    between atoms: C_3  and  O_6 
REMARK    3  A    between atoms: C_3  and  C_4 
REMARK    4  A    between atoms: C_7  and  O_6 
REMARK    5  A    between atoms: C_9  and  C_10 
REMARK    6  A    between atoms: N_15  and  C_14 
REMARK    7  A    between atoms: N_20  and  C_19 
REMARK       I    between atoms: C_22  and  N_20 
ROOT
ATOM      1  C   LIG d   1      -6.352  93.503 117.782  0.00  0.00     0.161 C 
ATOM      2  C   LIG d   1      -7.634  93.202 117.293  0.00  0.00     0.016 C 
ATOM      3  C   LIG d   1      -7.925  92.048 116.530  0.00  0.00     0.038 C 
ATOM      4  C   LIG d   1      -6.978  91.032 116.331  0.00  0.00     0.028 C 
ATOM      5  C   LIG d   1      -5.537  91.531 116.376  0.00  0.00    -0.047 C 
ATOM      6  C   LIG d   1      -5.330  92.352 117.670  0.00  0.00     0.091 C 
ENDROOT
BRANCH   1   7
ATOM      7  O   LIG d   1      -6.444  93.959 119.146  0.00  0.00    -0.368 OA
BRANCH   7   8
ATOM      8  C   LIG d   1      -7.715  94.530 119.543  0.00  0.00     0.119 C 
BRANCH   8   9
ATOM      9  C   LIG d   1      -7.453  95.984 119.981  0.00  0.00     0.028 C 
ATOM     10  C   LIG d   1      -7.229  96.926 118.786  0.00  0.00     0.006 C 
ENDBRANCH   8   9
BRANCH   8  11
ATOM     11  C   LIG d   1      -8.279  93.829 120.782  0.00  0.00     0.028 C 
ATOM     12  C   LIG d   1      -7.260  92.892 121.451  0.00  0.00     0.006 C 
ENDBRANCH   8  11
ENDBRANCH   7   8
ENDBRANCH   1   7
BRANCH   6  13
ATOM     13  N   LIG d   1      -3.971  92.947 117.752  0.00  0.00    -0.311 N 
ATOM     14  C   LIG d   1      -2.943  92.348 118.350  0.00  0.00     0.210 C 
ATOM     15  C   LIG d   1      -1.635  93.144 118.339  0.00  0.00     0.109 C 
ATOM     16  O   LIG d   1      -2.983  91.218 118.861  0.00  0.00    -0.276 OA
ATOM     17  H   LIG d   1      -3.842  93.849 117.336  0.00  0.00     0.149 HD
ENDBRANCH   6  13
BRANCH   5  18
ATOM     18  N   LIG d   1      -4.655  90.352 116.293  0.00  0.00     0.381 N 
ATOM     19  H   LIG d   1      -3.762  90.622 115.931  0.00  0.00    -0.090 HD
ATOM     20  H   LIG d   1      -5.062  89.685 115.661  0.00  0.00    -0.090 HD
ATOM     21  H   LIG d   1      -4.546  89.942 117.194  0.00  0.00    -0.090 HD
ENDBRANCH   5  18
BRANCH   3  22
ATOM     22  C   LIG d   1      -9.165  91.920 115.923  0.00  0.00     0.382 C 
ATOM     23  O   LIG d   1      -9.959  92.891 115.907  0.00  0.00    -0.241 OA
ATOM     24  O   LIG d   1      -9.518  90.832 115.430  0.00  0.00    -0.241 OA
ENDBRANCH   3  22
TORSDOF 7
ENDMDL
MODEL 2
REMARK VINA RESULT:      -5.9      0.933      1.445
REMARK  7 active torsions:
REMARK  status: ('A' for Active; 'I' for Inactive)
REMARK    1  A    between atoms: C_2  and  C_3 
REMARK    2  A    between atoms: C_3  and  O_6 
REMARK    3  A    between atoms: C_3  and  C_4 
REMARK    4  A    between atoms: C_7  and  O_6 
REMARK    5  A    between atoms: C_9  and  C_10 
REMARK    6  A    between atoms: N_15  and  C_14 
REMARK    7  A    between atoms: N_20  and  C_19 
REMARK       I    between atoms: C_22  and  N_20 
ROOT
ATOM      1  C   LIG d   1      -6.377  93.532 117.795  0.00  0.00     0.161 C 
ATOM      2  C   LIG d   1      -7.653  93.219 117.298  0.00  0.00     0.016 C 
ATOM      3  C   LIG d   1      -7.929  92.057 116.541  0.00  0.00     0.038 C 
ATOM      4  C   LIG d   1      -6.973  91.047 116.357  0.00  0.00     0.028 C 
ATOM      5  C   LIG d   1      -5.536  91.556 116.411  0.00  0.00    -0.047 C 
ATOM      6  C   LIG d   1      -5.347  92.388 117.700  0.00  0.00     0.091 C 
ENDROOT
BRANCH   1   7
ATOM      7  O   LIG d   1      -6.484  93.998 119.155  0.00  0.00    -0.368 OA
BRANCH   7   8
ATOM      8  C   LIG d   1      -6.227  95.408 119.367  0.00  0.00     0.119 C 
BRANCH   8   9
ATOM      9  C   LIG d   1      -5.139  95.522 120.452  0.00  0.00     0.028 C 
ATOM     10  C   LIG d   1      -4.866  94.180 121.153  0.00  0.00     0.006 C 
ENDBRANCH   8   9
BRANCH   8  11
ATOM     11  C   LIG d   1      -7.455  96.117 119.948  0.00  0.00     0.028 C 
ATOM     12  C   LIG d   1      -8.517  95.137 120.471  0.00  0.00     0.006 C 
ENDBRANCH   8  11
ENDBRANCH   7   8
ENDBRANCH   1   7
BRANCH   6  13
ATOM     13  N   LIG d   1      -3.992  92.994 117.789  0.00  0.00    -0.311 N 
ATOM     14  C   LIG d   1      -2.971  92.417 118.420  0.00  0.00     0.210 C 
ATOM     15  C   LIG d   1      -1.667  93.221 118.410  0.00  0.00     0.109 C 
ATOM     16  O   LIG d   1      -3.013  91.301 118.960  0.00  0.00    -0.276 OA
ATOM     17  H   LIG d   1      -3.862  93.885 117.352  0.00  0.00     0.149 HD
ENDBRANCH   6  13
BRANCH   5  18
ATOM     18  N   LIG d   1      -4.645  90.383 116.343  0.00  0.00     0.381 N 
ATOM     19  H   LIG d   1      -3.875  90.577 115.734  0.00  0.00    -0.090 HD
ATOM     20  H   LIG d   1      -5.158  89.606 115.966  0.00  0.00    -0.090 HD
ATOM     21  H   LIG d   1      -4.308  90.158 117.254  0.00  0.00    -0.090 HD
ENDBRANCH   5  18
BRANCH   3  22
ATOM     22  C   LIG d   1      -9.163  91.915 115.924  0.00  0.00     0.382 C 
ATOM     23  O   LIG d   1      -9.966  92.879 115.899  0.00  0.00    -0.241 OA
ATOM     24  O   LIG d   1      -9.501  90.823 115.431  0.00  0.00    -0.241 OA
ENDBRANCH   3  22
TORSDOF 7
ENDMDL
MODEL 3
REMARK VINA RESULT:      -5.6      2.489      4.396
REMARK  7 active torsions:
REMARK  status: ('A' for Active; 'I' for Inactive)
REMARK    1  A    between atoms: C_2  and  C_3 
REMARK    2  A    between atoms: C_3  and  O_6 
REMARK    3  A    between atoms: C_3  and  C_4 
REMARK    4  A    between atoms: C_7  and  O_6 
REMARK    5  A    between atoms: C_9  and  C_10 
REMARK    6  A    between atoms: N_15  and  C_14 
REMARK    7  A    between atoms: N_20  and  C_19 
REMARK       I    between atoms: C_22  and  N_20 
ROOT
ATOM      1  C   LIG d   1      -6.298  92.702 118.288  0.00  0.00     0.161 C 
ATOM      2  C   LIG d   1      -6.013  91.489 117.640  0.00  0.00     0.016 C 
ATOM      3  C   LIG d   1      -6.801  90.964 116.590  0.00  0.00     0.038 C 
ATOM      4  C   LIG d   1      -7.849  91.696 116.012  0.00  0.00     0.028 C 
ATOM      5  C   LIG d   1      -8.485  92.701 116.966  0.00  0.00    -0.047 C 
ATOM      6  C   LIG d   1      -7.371  93.568 117.596  0.00  0.00     0.091 C 
ENDROOT
BRANCH   1   7
ATOM      7  O   LIG d   1      -5.083  93.457 118.466  0.00  0.00    -0.368 OA
BRANCH   7   8
ATOM      8  C   LIG d   1      -4.356  93.213 119.695  0.00  0.00     0.119 C 
BRANCH   8   9
ATOM      9  C   LIG d   1      -4.999  94.082 120.794  0.00  0.00     0.028 C 
ATOM     10  C   LIG d   1      -4.953  95.582 120.458  0.00  0.00     0.006 C 
ENDBRANCH   8   9
BRANCH   8  11
ATOM     11  C   LIG d   1      -2.907  93.699 119.591  0.00  0.00     0.028 C 
ATOM     12  C   LIG d   1      -2.307  93.486 118.192  0.00  0.00     0.006 C 
ENDBRANCH   8  11
ENDBRANCH   7   8
ENDBRANCH   1   7
BRANCH   6  13
ATOM     13  N   LIG d   1      -7.899  94.522 118.607  0.00  0.00    -0.311 N 
ATOM     14  C   LIG d   1      -8.884  94.223 119.453  0.00  0.00     0.210 C 
ATOM     15  C   LIG d   1      -9.290  95.357 120.399  0.00  0.00     0.109 C 
ATOM     16  O   LIG d   1      -9.438  93.116 119.530  0.00  0.00    -0.276 OA
ATOM     17  H   LIG d   1      -7.485  95.433 118.634  0.00  0.00     0.149 HD
ENDBRANCH   6  13
BRANCH   5  18
ATOM     18  N   LIG d   1      -9.466  93.488 116.196  0.00  0.00     0.381 N 
ATOM     19  H   LIG d   1     -10.059  92.874 115.675  0.00  0.00    -0.090 HD
ATOM     20  H   LIG d   1      -8.972  94.076 115.547  0.00  0.00    -0.090 HD
ATOM     21  H   LIG d   1     -10.013  94.047 116.812  0.00  0.00    -0.090 HD
ENDBRANCH   5  18
BRANCH   3  22
ATOM     22  C   LIG d   1      -6.569  89.675 116.135  0.00  0.00     0.382 C 
ATOM     23  O   LIG d   1      -7.516  88.854 116.064  0.00  0.00    -0.241 OA
ATOM     24  O   LIG d   1      -5.417  89.308 115.836  0.00  0.00    -0.241 OA
ENDBRANCH   3  22
TORSDOF 7
ENDMDL
MODEL 4
REMARK VINA RESULT:      -4.9      2.303      4.465
REMARK  7 active torsions:
REMARK  status: ('A' for Active; 'I' for Inactive)
REMARK    1  A    between atoms: C_2  and  C_3 
REMARK    2  A    between atoms: C_3  and  O_6 
REMARK    3  A    between atoms: C_3  and  C_4 
REMARK    4  A    between atoms: C_7  and  O_6 
REMARK    5  A    between atoms: C_9  and  C_10 
REMARK    6  A    between atoms: N_15  and  C_14 
REMARK    7  A    between atoms: N_20  and  C_19 
REMARK       I    between atoms: C_22  and  N_20 
ROOT
ATOM      1  C   LIG d   1      -5.175  92.424 118.234  0.00  0.00     0.161 C 
ATOM      2  C   LIG d   1      -5.279  91.290 117.411  0.00  0.00     0.016 C 
ATOM      3  C   LIG d   1      -6.408  91.016 116.604  0.00  0.00     0.038 C 
ATOM      4  C   LIG d   1      -7.451  91.941 116.449  0.00  0.00     0.028 C 
ATOM      5  C   LIG d   1      -7.622  92.867 117.648  0.00  0.00    -0.047 C 
ATOM      6  C   LIG d   1      -6.254  93.500 117.993  0.00  0.00     0.091 C 
ENDROOT
BRANCH   1   7
ATOM      7  O   LIG d   1      -3.859  92.999 118.108  0.00  0.00    -0.368 OA
BRANCH   7   8
ATOM      8  C   LIG d   1      -2.944  92.741 119.202  0.00  0.00     0.119 C 
BRANCH   8   9
ATOM      9  C   LIG d   1      -1.983  93.942 119.295  0.00  0.00     0.028 C 
ATOM     10  C   LIG d   1      -2.726  95.289 119.297  0.00  0.00     0.006 C 
ENDBRANCH   8   9
BRANCH   8  11
ATOM     11  C   LIG d   1      -2.052  91.530 118.909  0.00  0.00     0.028 C 
ATOM     12  C   LIG d   1      -2.485  90.272 119.678  0.00  0.00     0.006 C 
ENDBRANCH   8  11
ENDBRANCH   7   8
ENDBRANCH   1   7
BRANCH   6  13
ATOM     13  N   LIG d   1      -6.315  94.355 119.207  0.00  0.00    -0.311 N 
ATOM     14  C   LIG d   1      -6.706  95.628 119.188  0.00  0.00     0.210 C 
ATOM     15  C   LIG d   1      -6.676  96.335 120.547  0.00  0.00     0.109 C 
ATOM     16  O   LIG d   1      -7.105  96.231 118.180  0.00  0.00    -0.276 OA
ATOM     17  H   LIG d   1      -6.038  93.938 120.074  0.00  0.00     0.149 HD
ENDBRANCH   6  13
BRANCH   5  18
ATOM     18  N   LIG d   1      -8.649  93.866 117.297  0.00  0.00     0.381 N 
ATOM     19  H   LIG d   1      -8.354  94.775 117.595  0.00  0.00    -0.090 HD
ATOM     20  H   LIG d   1      -9.502  93.638 117.777  0.00  0.00    -0.090 HD
ATOM     21  H   LIG d   1      -8.803  93.866 116.313  0.00  0.00    -0.090 HD
ENDBRANCH   5  18
BRANCH   3  22
ATOM     22  C   LIG d   1      -6.518  89.787 115.972  0.00  0.00     0.382 C 
ATOM     23  O   LIG d   1      -5.510  89.049 115.855  0.00  0.00    -0.241 OA
ATOM     24  O   LIG d   1      -7.603  89.425 115.479  0.00  0.00    -0.241 OA
ENDBRANCH   3  22
TORSDOF 7
ENDMDL
MODEL 5
REMARK VINA RESULT:      -4.9      2.207      4.443
REMARK  7 active torsions:
REMARK  status: ('A' for Active; 'I' for Inactive)
REMARK    1  A    between atoms: C_2  and  C_3 
REMARK    2  A    between atoms: C_3  and  O_6 
REMARK    3  A    between atoms: C_3  and  C_4 
REMARK    4  A    between atoms: C_7  and  O_6 
REMARK    5  A    between atoms: C_9  and  C_10 
REMARK    6  A    between atoms: N_15  and  C_14 
REMARK    7  A    between atoms: N_20  and  C_19 
REMARK       I    between atoms: C_22  and  N_20 
ROOT
ATOM      1  C   LIG d   1      -5.990  92.792 118.457  0.00  0.00     0.161 C 
ATOM      2  C   LIG d   1      -6.778  92.520 117.325  0.00  0.00     0.016 C 
ATOM      3  C   LIG d   1      -8.126  92.927 117.199  0.00  0.00     0.038 C 
ATOM      4  C   LIG d   1      -8.736  93.770 118.139  0.00  0.00     0.028 C 
ATOM      5  C   LIG d   1      -8.140  93.651 119.538  0.00  0.00    -0.047 C 
ATOM      6  C   LIG d   1      -6.605  93.806 119.444  0.00  0.00     0.091 C 
ENDROOT
BRANCH   1   7
ATOM      7  O   LIG d   1      -4.678  93.224 118.046  0.00  0.00    -0.368 OA
BRANCH   7   8
ATOM      8  C   LIG d   1      -3.665  92.192 117.959  0.00  0.00     0.119 C 
BRANCH   8   9
ATOM      9  C   LIG d   1      -3.835  91.272 119.183  0.00  0.00     0.028 C 
ATOM     10  C   LIG d   1      -2.703  90.236 119.300  0.00  0.00     0.006 C 
ENDBRANCH   8   9
BRANCH   8  11
ATOM     11  C   LIG d   1      -2.257  92.781 118.085  0.00  0.00     0.028 C 
ATOM     12  C   LIG d   1      -2.219  94.054 118.946  0.00  0.00     0.006 C 
ENDBRANCH   8  11
ENDBRANCH   7   8
ENDBRANCH   1   7
BRANCH   6  13
ATOM     13  N   LIG d   1      -5.935  93.618 120.757  0.00  0.00    -0.311 N 
ATOM     14  C   LIG d   1      -5.127  94.525 121.304  0.00  0.00     0.210 C 
ATOM     15  C   LIG d   1      -4.525  94.124 122.654  0.00  0.00     0.109 C 
ATOM     16  O   LIG d   1      -4.878  95.637 120.815  0.00  0.00    -0.276 OA
ATOM     17  H   LIG d   1      -6.107  92.757 121.238  0.00  0.00     0.149 HD
ENDBRANCH   6  13
BRANCH   5  18
ATOM     18  N   LIG d   1      -8.775  94.681 120.382  0.00  0.00     0.381 N 
ATOM     19  H   LIG d   1      -9.348  95.275 119.818  0.00  0.00    -0.090 HD
ATOM     20  H   LIG d   1      -8.057  95.243 120.804  0.00  0.00    -0.090 HD
ATOM     21  H   LIG d   1      -9.327  94.249 121.090  0.00  0.00    -0.090 HD
ENDBRANCH   5  18
BRANCH   3  22
ATOM     22  C   LIG d   1      -8.890  92.456 116.142  0.00  0.00     0.382 C 
ATOM     23  O   LIG d   1     -10.026  92.942 115.925  0.00  0.00    -0.241 OA
ATOM     24  O   LIG d   1      -8.476  91.521 115.431  0.00  0.00    -0.241 OA
ENDBRANCH   3  22
TORSDOF 7
ENDMDL
MODEL 6
REMARK VINA RESULT:      -4.9      2.202      5.087
REMARK  7 active torsions:
REMARK  status: ('A' for Active; 'I' for Inactive)
REMARK    1  A    between atoms: C_2  and  C_3 
REMARK    2  A    between atoms: C_3  and  O_6 
REMARK    3  A    between atoms: C_3  and  C_4 
REMARK    4  A    between atoms: C_7  and  O_6 
REMARK    5  A    between atoms: C_9  and  C_10 
REMARK    6  A    between atoms: N_15  and  C_14 
REMARK    7  A    between atoms: N_20  and  C_19 
REMARK       I    between atoms: C_22  and  N_20 
ROOT
ATOM      1  C   LIG d   1      -5.681  91.624 119.502  0.00  0.00     0.161 C 
ATOM      2  C   LIG d   1      -4.578  91.445 120.354  0.00  0.00     0.016 C 
ATOM      3  C   LIG d   1      -3.349  90.888 119.930  0.00  0.00     0.038 C 
ATOM      4  C   LIG d   1      -3.088  90.610 118.580  0.00  0.00     0.028 C 
ATOM      5  C   LIG d   1      -4.344  90.303 117.771  0.00  0.00    -0.047 C 
ATOM      6  C   LIG d   1      -5.378  91.429 118.002  0.00  0.00     0.091 C 
ENDROOT
BRANCH   1   7
ATOM      7  O   LIG d   1      -6.269  92.920 119.731  0.00  0.00    -0.368 OA
BRANCH   7   8
ATOM      8  C   LIG d   1      -5.713  94.016 118.964  0.00  0.00     0.119 C 
BRANCH   8   9
ATOM      9  C   LIG d   1      -4.951  94.928 119.945  0.00  0.00     0.028 C 
ATOM     10  C   LIG d   1      -3.461  95.059 119.588  0.00  0.00     0.006 C 
ENDBRANCH   8   9
BRANCH   8  11
ATOM     11  C   LIG d   1      -6.817  94.895 118.368  0.00  0.00     0.028 C 
ATOM     12  C   LIG d   1      -8.207  94.246 118.454  0.00  0.00     0.006 C 
ENDBRANCH   8  11
ENDBRANCH   7   8
ENDBRANCH   1   7
BRANCH   6  13
ATOM     13  N   LIG d   1      -6.668  91.165 117.313  0.00  0.00    -0.311 N 
ATOM     14  C   LIG d   1      -6.979  91.670 116.121  0.00  0.00     0.210 C 
ATOM     15  C   LIG d   1      -8.368  91.288 115.600  0.00  0.00     0.109 C 
ATOM     16  O   LIG d   1      -6.225  92.372 115.431  0.00  0.00    -0.276 OA
ATOM     17  H   LIG d   1      -7.327  90.579 117.788  0.00  0.00     0.149 HD
ENDBRANCH   6  13
BRANCH   5  18
ATOM     18  N   LIG d   1      -3.942  90.168 116.358  0.00  0.00     0.381 N 
ATOM     19  H   LIG d   1      -3.589  89.247 116.192  0.00  0.00    -0.090 HD
ATOM     20  H   LIG d   1      -3.208  90.827 116.164  0.00  0.00    -0.090 HD
ATOM     21  H   LIG d   1      -4.722  90.345 115.763  0.00  0.00    -0.090 HD
ENDBRANCH   5  18
BRANCH   3  22
ATOM     22  C   LIG d   1      -2.380  90.567 120.868  0.00  0.00     0.382 C 
ATOM     23  O   LIG d   1      -1.357  91.285 120.983  0.00  0.00    -0.241 OA
ATOM     24  O   LIG d   1      -2.494  89.545 121.569  0.00  0.00    -0.241 OA
ENDBRANCH   3  22
TORSDOF 7
ENDMDL
MODEL 7
REMARK VINA RESULT:      -4.8      2.444      3.648
REMARK  7 active torsions:
REMARK  status: ('A' for Active; 'I' for Inactive)
REMARK    1  A    between atoms: C_2  and  C_3 
REMARK    2  A    between atoms: C_3  and  O_6 
REMARK    3  A    between atoms: C_3  and  C_4 
REMARK    4  A    between atoms: C_7  and  O_6 
REMARK    5  A    between atoms: C_9  and  C_10 
REMARK    6  A    between atoms: N_15  and  C_14 
REMARK    7  A    between atoms: N_20  and  C_19 
REMARK       I    between atoms: C_22  and  N_20 
ROOT
ATOM      1  C   LIG d   1      -4.540  92.013 118.000  0.00  0.00     0.161 C 
ATOM      2  C   LIG d   1      -5.810  92.586 117.825  0.00  0.00     0.016 C 
ATOM      3  C   LIG d   1      -6.778  92.074 116.929  0.00  0.00     0.038 C 
ATOM      4  C   LIG d   1      -6.594  90.858 116.255  0.00  0.00     0.028 C 
ATOM      5  C   LIG d   1      -5.128  90.513 116.016  0.00  0.00    -0.047 C 
ATOM      6  C   LIG d   1      -4.363  90.622 117.355  0.00  0.00     0.091 C 
ENDROOT
BRANCH   1   7
ATOM      7  O   LIG d   1      -4.217  91.959 119.403  0.00  0.00    -0.368 OA
BRANCH   7   8
ATOM      8  C   LIG d   1      -3.165  92.849 119.850  0.00  0.00     0.119 C 
BRANCH   8   9
ATOM      9  C   LIG d   1      -2.088  91.985 120.535  0.00  0.00     0.028 C 
ATOM     10  C   LIG d   1      -2.671  90.706 121.160  0.00  0.00     0.006 C 
ENDBRANCH   8   9
BRANCH   8  11
ATOM     11  C   LIG d   1      -3.667  93.806 120.935  0.00  0.00     0.028 C 
ATOM     12  C   LIG d   1      -3.296  95.271 120.656  0.00  0.00     0.006 C 
ENDBRANCH   8  11
ENDBRANCH   7   8
ENDBRANCH   1   7
BRANCH   6  13
ATOM     13  N   LIG d   1      -2.905  90.383 117.195  0.00  0.00    -0.311 N 
ATOM     14  C   LIG d   1      -2.268  89.347 117.739  0.00  0.00     0.210 C 
ATOM     15  C   LIG d   1      -0.761  89.299 117.468  0.00  0.00     0.109 C 
ATOM     16  O   LIG d   1      -2.814  88.445 118.393  0.00  0.00    -0.276 OA
ATOM     17  H   LIG d   1      -2.390  91.049 116.653  0.00  0.00     0.149 HD
ENDBRANCH   6  13
BRANCH   5  18
ATOM     18  N   LIG d   1      -5.078  89.161 115.430  0.00  0.00     0.381 N 
ATOM     19  H   LIG d   1      -4.612  88.537 116.058  0.00  0.00    -0.090 HD
ATOM     20  H   LIG d   1      -4.553  89.197 114.574  0.00  0.00    -0.090 HD
ATOM     21  H   LIG d   1      -6.001  88.833 115.249  0.00  0.00    -0.090 HD
ENDBRANCH   5  18
BRANCH   3  22
ATOM     22  C   LIG d   1      -7.929  92.803 116.671  0.00  0.00     0.382 C 
ATOM     23  O   LIG d   1      -8.671  92.484 115.712  0.00  0.00    -0.241 OA
ATOM     24  O   LIG d   1      -8.210  93.803 117.359  0.00  0.00    -0.241 OA
ENDBRANCH   3  22
TORSDOF 7
ENDMDL
MODEL 8
REMARK VINA RESULT:      -4.8      2.563      4.820
REMARK  7 active torsions:
REMARK  status: ('A' for Active; 'I' for Inactive)
REMARK    1  A    between atoms: C_2  and  C_3 
REMARK    2  A    between atoms: C_3  and  O_6 
REMARK    3  A    between atoms: C_3  and  C_4 
REMARK    4  A    between atoms: C_7  and  O_6 
REMARK    5  A    between atoms: C_9  and  C_10 
REMARK    6  A    between atoms: N_15  and  C_14 
REMARK    7  A    between atoms: N_20  and  C_19 
REMARK       I    between atoms: C_22  and  N_20 
ROOT
ATOM      1  C   LIG d   1      -4.260  91.249 118.110  0.00  0.00     0.161 C 
ATOM      2  C   LIG d   1      -5.191  90.521 117.351  0.00  0.00     0.016 C 
ATOM      3  C   LIG d   1      -6.406  91.066 116.877  0.00  0.00     0.038 C 
ATOM      4  C   LIG d   1      -6.705  92.431 117.004  0.00  0.00     0.028 C 
ATOM      5  C   LIG d   1      -6.029  93.091 118.201  0.00  0.00    -0.047 C 
ATOM      6  C   LIG d   1      -4.517  92.770 118.163  0.00  0.00     0.091 C 
ENDROOT
BRANCH   1   7
ATOM      7  O   LIG d   1      -2.926  90.983 117.634  0.00  0.00    -0.368 OA
BRANCH   7   8
ATOM      8  C   LIG d   1      -2.071  90.224 118.524  0.00  0.00     0.119 C 
BRANCH   8   9
ATOM      9  C   LIG d   1      -1.928  88.808 117.933  0.00  0.00     0.028 C 
ATOM     10  C   LIG d   1      -0.497  88.514 117.454  0.00  0.00     0.006 C 
ENDBRANCH   8   9
BRANCH   8  11
ATOM     11  C   LIG d   1      -2.728  90.027 119.894  0.00  0.00     0.028 C 
ATOM     12  C   LIG d   1      -1.901  90.625 121.042  0.00  0.00     0.006 C 
ENDBRANCH   8  11
ENDBRANCH   7   8
ENDBRANCH   1   7
BRANCH   6  13
ATOM     13  N   LIG d   1      -3.794  93.307 119.345  0.00  0.00    -0.311 N 
ATOM     14  C   LIG d   1      -2.631  93.952 119.262  0.00  0.00     0.210 C 
ATOM     15  C   LIG d   1      -2.047  94.406 120.603  0.00  0.00     0.109 C 
ATOM     16  O   LIG d   1      -2.045  94.219 118.202  0.00  0.00    -0.276 OA
ATOM     17  H   LIG d   1      -4.215  93.163 120.242  0.00  0.00     0.149 HD
ENDBRANCH   6  13
BRANCH   5  18
ATOM     18  N   LIG d   1      -6.315  94.537 118.133  0.00  0.00     0.381 N 
ATOM     19  H   LIG d   1      -7.019  94.774 118.802  0.00  0.00    -0.090 HD
ATOM     20  H   LIG d   1      -6.663  94.756 117.216  0.00  0.00    -0.090 HD
ATOM     21  H   LIG d   1      -5.485  95.057 118.314  0.00  0.00    -0.090 HD
ENDBRANCH   5  18
BRANCH   3  22
ATOM     22  C   LIG d   1      -7.356  90.234 116.304  0.00  0.00     0.382 C 
ATOM     23  O   LIG d   1      -8.531  90.643 116.141  0.00  0.00    -0.241 OA
ATOM     24  O   LIG d   1      -7.064  89.065 115.989  0.00  0.00    -0.241 OA
ENDBRANCH   3  22
TORSDOF 7
ENDMDL
MODEL 9
REMARK VINA RESULT:      -4.7      2.242      4.649
REMARK  7 active torsions:
REMARK  status: ('A' for Active; 'I' for Inactive)
REMARK    1  A    between atoms: C_2  and  C_3 
REMARK    2  A    between atoms: C_3  and  O_6 
REMARK    3  A    between atoms: C_3  and  C_4 
REMARK    4  A    between atoms: C_7  and  O_6 
REMARK    5  A    between atoms: C_9  and  C_10 
REMARK    6  A    between atoms: N_15  and  C_14 
REMARK    7  A    between atoms: N_20  and  C_19 
REMARK       I    between atoms: C_22  and  N_20 
ROOT
ATOM      1  C   LIG d   1      -5.674  92.699 118.560  0.00  0.00     0.161 C 
ATOM      2  C   LIG d   1      -7.007  93.076 118.795  0.00  0.00     0.016 C 
ATOM      3  C   LIG d   1      -7.375  94.155 119.630  0.00  0.00     0.038 C 
ATOM      4  C   LIG d   1      -6.422  95.032 120.171  0.00  0.00     0.028 C 
ATOM      5  C   LIG d   1      -5.053  94.391 120.371  0.00  0.00    -0.047 C 
ATOM      6  C   LIG d   1      -4.620  93.712 119.052  0.00  0.00     0.091 C 
ENDROOT
BRANCH   1   7
ATOM      7  O   LIG d   1      -5.485  92.420 117.158  0.00  0.00    -0.368 OA
BRANCH   7   8
ATOM      8  C   LIG d   1      -6.184  91.262 116.639  0.00  0.00     0.119 C 
BRANCH   8   9
ATOM      9  C   LIG d   1      -5.121  90.285 116.099  0.00  0.00     0.028 C 
ATOM     10  C   LIG d   1      -4.000  90.016 117.116  0.00  0.00     0.006 C 
ENDBRANCH   8   9
BRANCH   8  11
ATOM     11  C   LIG d   1      -7.049  91.629 115.430  0.00  0.00     0.028 C 
ATOM     12  C   LIG d   1      -8.489  92.002 115.819  0.00  0.00     0.006 C 
ENDBRANCH   8  11
ENDBRANCH   7   8
ENDBRANCH   1   7
BRANCH   6  13
ATOM     13  N   LIG d   1      -3.328  92.988 119.185  0.00  0.00    -0.311 N 
ATOM     14  C   LIG d   1      -2.152  93.523 118.864  0.00  0.00     0.210 C 
ATOM     15  C   LIG d   1      -0.946  92.597 119.059  0.00  0.00     0.109 C 
ATOM     16  O   LIG d   1      -1.988  94.686 118.468  0.00  0.00    -0.276 OA
ATOM     17  H   LIG d   1      -3.366  92.048 119.529  0.00  0.00     0.149 HD
ENDBRANCH   6  13
BRANCH   5  18
ATOM     18  N   LIG d   1      -4.125  95.450 120.809  0.00  0.00     0.381 N 
ATOM     19  H   LIG d   1      -3.408  95.577 120.123  0.00  0.00    -0.090 HD
ATOM     20  H   LIG d   1      -3.691  95.166 121.670  0.00  0.00    -0.090 HD
ATOM     21  H   LIG d   1      -4.620  96.303 120.945  0.00  0.00    -0.090 HD
ENDBRANCH   5  18
BRANCH   3  22
ATOM     22  C   LIG d   1      -8.707  94.343 119.965  0.00  0.00     0.382 C 
ATOM     23  O   LIG d   1      -9.087  95.443 120.434  0.00  0.00    -0.241 OA
ATOM     24  O   LIG d   1      -9.526  93.412 119.844  0.00  0.00    -0.241 OA
ENDBRANCH   3  22
TORSDOF 7
ENDMDL
