MODEL 1
REMARK VINA RESULT:      -4.4      0.000      0.000
REMARK  7 active torsions:
REMARK  status: ('A' for Active; 'I' for Inactive)
REMARK    1  A    between atoms: C_2  and  C_3 
REMARK    2  A    between atoms: C_3  and  O_6 
REMARK    3  A    between atoms: C_3  and  C_4 
REMARK    4  A    between atoms: C_7  and  O_6 
REMARK    5  A    between atoms: C_9  and  C_10 
REMARK    6  A    between atoms: N_15  and  C_14 
REMARK    7  A    between atoms: N_20  and  C_19 
REMARK       I    between atoms: C_22  and  N_20 
ROOT
ATOM      1  C   LIG d   1      -2.537  92.851 120.137  0.00  0.00     0.161 C 
ATOM      2  C   LIG d   1      -2.065  91.758 119.391  0.00  0.00     0.016 C 
ATOM      3  C   LIG d   1      -2.787  91.176 118.323  0.00  0.00     0.038 C 
ATOM      4  C   LIG d   1      -3.968  91.747 117.828  0.00  0.00     0.028 C 
ATOM      5  C   LIG d   1      -4.736  92.550 118.872  0.00  0.00    -0.047 C 
ATOM      6  C   LIG d   1      -3.772  93.557 119.540  0.00  0.00     0.091 C 
ENDROOT
BRANCH   1   7
ATOM      7  O   LIG d   1      -1.469  93.798 120.343  0.00  0.00    -0.368 OA
BRANCH   7   8
ATOM      8  C   LIG d   1      -0.845  94.325 119.147  0.00  0.00     0.119 C 
BRANCH   8   9
ATOM      9  C   LIG d   1       0.681  94.239 119.346  0.00  0.00     0.028 C 
ATOM     10  C   LIG d   1       1.334  93.190 118.429  0.00  0.00     0.006 C 
ENDBRANCH   8   9
BRANCH   8  11
ATOM     11  C   LIG d   1      -1.147  95.816 118.971  0.00  0.00     0.028 C 
ATOM     12  C   LIG d   1      -1.374  96.540 120.308  0.00  0.00     0.006 C 
ENDBRANCH   8  11
ENDBRANCH   7   8
ENDBRANCH   1   7
BRANCH   6  13
ATOM     13  N   LIG d   1      -4.422  94.326 120.633  0.00  0.00    -0.311 N 
ATOM     14  C   LIG d   1      -4.931  95.546 120.469  0.00  0.00     0.210 C 
ATOM     15  C   LIG d   1      -5.538  96.168 121.730  0.00  0.00     0.109 C 
ATOM     16  O   LIG d   1      -4.965  96.159 119.391  0.00  0.00    -0.276 OA
ATOM     17  H   LIG d   1      -4.466  93.891 121.533  0.00  0.00     0.149 HD
ENDBRANCH   6  13
BRANCH   5  18
ATOM     18  N   LIG d   1      -5.869  93.202 118.188  0.00  0.00     0.381 N 
ATOM     19  H   LIG d   1      -6.251  92.583 117.500  0.00  0.00    -0.090 HD
ATOM     20  H   LIG d   1      -5.536  94.026 117.720  0.00  0.00    -0.090 HD
ATOM     21  H   LIG d   1      -6.572  93.448 118.850  0.00  0.00    -0.090 HD
ENDBRANCH   5  18
BRANCH   3  22
ATOM     22  C   LIG d   1      -2.346  89.985 117.765  0.00  0.00     0.382 C 
ATOM     23  O   LIG d   1      -1.121  89.801 117.566  0.00  0.00    -0.241 OA
ATOM     24  O   LIG d   1      -3.162  89.111 117.417  0.00  0.00    -0.241 OA
ENDBRANCH   3  22
TORSDOF 7
ENDMDL
MODEL 2
REMARK VINA RESULT:      -4.4      4.159      6.907
REMARK  7 active torsions:
REMARK  status: ('A' for Active; 'I' for Inactive)
REMARK    1  A    between atoms: C_2  and  C_3 
REMARK    2  A    between atoms: C_3  and  O_6 
REMARK    3  A    between atoms: C_3  and  C_4 
REMARK    4  A    between atoms: C_7  and  O_6 
REMARK    5  A    between atoms: C_9  and  C_10 
REMARK    6  A    between atoms: N_15  and  C_14 
REMARK    7  A    between atoms: N_20  and  C_19 
REMARK       I    between atoms: C_22  and  N_20 
ROOT
ATOM      1  C   LIG d   1       1.137  90.029 117.471  0.00  0.00     0.161 C 
ATOM      2  C   LIG d   1      -0.238  89.753 117.396  0.00  0.00     0.016 C 
ATOM      3  C   LIG d   1      -1.240  90.707 117.687  0.00  0.00     0.038 C 
ATOM      4  C   LIG d   1      -0.934  92.054 117.929  0.00  0.00     0.028 C 
ATOM      5  C   LIG d   1       0.460  92.263 118.511  0.00  0.00    -0.047 C 
ATOM      6  C   LIG d   1       1.490  91.524 117.626  0.00  0.00     0.091 C 
ENDROOT
BRANCH   1   7
ATOM      7  O   LIG d   1       1.811  89.472 116.326  0.00  0.00    -0.368 OA
BRANCH   7   8
ATOM      8  C   LIG d   1       2.544  88.243 116.554  0.00  0.00     0.119 C 
BRANCH   8   9
ATOM      9  C   LIG d   1       4.040  88.551 116.348  0.00  0.00     0.028 C 
ATOM     10  C   LIG d   1       4.269  89.763 115.430  0.00  0.00     0.006 C 
ENDBRANCH   8   9
BRANCH   8  11
ATOM     11  C   LIG d   1       2.200  87.185 115.501  0.00  0.00     0.028 C 
ATOM     12  C   LIG d   1       0.840  86.515 115.752  0.00  0.00     0.006 C 
ENDBRANCH   8  11
ENDBRANCH   7   8
ENDBRANCH   1   7
BRANCH   6  13
ATOM     13  N   LIG d   1       2.870  91.607 118.171  0.00  0.00    -0.311 N 
ATOM     14  C   LIG d   1       3.745  92.543 117.811  0.00  0.00     0.210 C 
ATOM     15  C   LIG d   1       5.120  92.435 118.479  0.00  0.00     0.109 C 
ATOM     16  O   LIG d   1       3.504  93.473 117.026  0.00  0.00    -0.276 OA
ATOM     17  H   LIG d   1       3.139  90.910 118.838  0.00  0.00     0.149 HD
ENDBRANCH   6  13
BRANCH   5  18
ATOM     18  N   LIG d   1       0.700  93.717 118.584  0.00  0.00     0.381 N 
ATOM     19  H   LIG d   1      -0.173  94.200 118.662  0.00  0.00    -0.090 HD
ATOM     20  H   LIG d   1       1.151  94.015 117.738  0.00  0.00    -0.090 HD
ATOM     21  H   LIG d   1       1.276  93.929 119.369  0.00  0.00    -0.090 HD
ENDBRANCH   5  18
BRANCH   3  22
ATOM     22  C   LIG d   1      -2.565  90.306 117.777  0.00  0.00     0.382 C 
ATOM     23  O   LIG d   1      -2.863  89.094 117.654  0.00  0.00    -0.241 OA
ATOM     24  O   LIG d   1      -3.470  91.148 117.936  0.00  0.00    -0.241 OA
ENDBRANCH   3  22
TORSDOF 7
ENDMDL
MODEL 3
REMARK VINA RESULT:      -4.4      2.529      5.333
REMARK  7 active torsions:
REMARK  status: ('A' for Active; 'I' for Inactive)
REMARK    1  A    between atoms: C_2  and  C_3 
REMARK    2  A    between atoms: C_3  and  O_6 
REMARK    3  A    between atoms: C_3  and  C_4 
REMARK    4  A    between atoms: C_7  and  O_6 
REMARK    5  A    between atoms: C_9  and  C_10 
REMARK    6  A    between atoms: N_15  and  C_14 
REMARK    7  A    between atoms: N_20  and  C_19 
REMARK       I    between atoms: C_22  and  N_20 
ROOT
ATOM      1  C   LIG d   1      -4.809  92.824 119.156  0.00  0.00     0.161 C 
ATOM      2  C   LIG d   1      -3.806  93.361 119.980  0.00  0.00     0.016 C 
ATOM      3  C   LIG d   1      -2.448  92.975 119.903  0.00  0.00     0.038 C 
ATOM      4  C   LIG d   1      -1.973  92.132 118.888  0.00  0.00     0.028 C 
ATOM      5  C   LIG d   1      -3.032  91.175 118.350  0.00  0.00    -0.047 C 
ATOM      6  C   LIG d   1      -4.292  91.985 117.969  0.00  0.00     0.091 C 
ENDROOT
BRANCH   1   7
ATOM      7  O   LIG d   1      -5.671  93.879 118.686  0.00  0.00    -0.368 OA
BRANCH   7   8
ATOM      8  C   LIG d   1      -6.143  94.812 119.689  0.00  0.00     0.119 C 
BRANCH   8   9
ATOM      9  C   LIG d   1      -7.657  94.582 119.860  0.00  0.00     0.028 C 
ATOM     10  C   LIG d   1      -8.463  95.050 118.636  0.00  0.00     0.006 C 
ENDBRANCH   8   9
BRANCH   8  11
ATOM     11  C   LIG d   1      -6.004  96.261 119.213  0.00  0.00     0.028 C 
ATOM     12  C   LIG d   1      -5.524  97.210 120.323  0.00  0.00     0.006 C 
ENDBRANCH   8  11
ENDBRANCH   7   8
ENDBRANCH   1   7
BRANCH   6  13
ATOM     13  N   LIG d   1      -5.408  91.116 117.512  0.00  0.00    -0.311 N 
ATOM     14  C   LIG d   1      -5.980  91.227 116.314  0.00  0.00     0.210 C 
ATOM     15  C   LIG d   1      -7.126  90.245 116.053  0.00  0.00     0.109 C 
ATOM     16  O   LIG d   1      -5.625  92.023 115.432  0.00  0.00    -0.276 OA
ATOM     17  H   LIG d   1      -5.737  90.422 118.154  0.00  0.00     0.149 HD
ENDBRANCH   6  13
BRANCH   5  18
ATOM     18  N   LIG d   1      -2.441  90.453 117.207  0.00  0.00     0.381 N 
ATOM     19  H   LIG d   1      -3.168  90.091 116.624  0.00  0.00    -0.090 HD
ATOM     20  H   LIG d   1      -1.900  89.681 117.555  0.00  0.00    -0.090 HD
ATOM     21  H   LIG d   1      -1.858  91.066 116.681  0.00  0.00    -0.090 HD
ENDBRANCH   5  18
BRANCH   3  22
ATOM     22  C   LIG d   1      -1.556  93.404 120.874  0.00  0.00     0.382 C 
ATOM     23  O   LIG d   1      -1.867  94.351 121.637  0.00  0.00    -0.241 OA
ATOM     24  O   LIG d   1      -0.427  92.886 120.968  0.00  0.00    -0.241 OA
ENDBRANCH   3  22
TORSDOF 7
ENDMDL
MODEL 4
REMARK VINA RESULT:      -4.3      2.498      4.404
REMARK  7 active torsions:
REMARK  status: ('A' for Active; 'I' for Inactive)
REMARK    1  A    between atoms: C_2  and  C_3 
REMARK    2  A    between atoms: C_3  and  O_6 
REMARK    3  A    between atoms: C_3  and  C_4 
REMARK    4  A    between atoms: C_7  and  O_6 
REMARK    5  A    between atoms: C_9  and  C_10 
REMARK    6  A    between atoms: N_15  and  C_14 
REMARK    7  A    between atoms: N_20  and  C_19 
REMARK       I    between atoms: C_22  and  N_20 
ROOT
ATOM      1  C   LIG d   1      -3.590  92.492 118.677  0.00  0.00     0.161 C 
ATOM      2  C   LIG d   1      -4.535  91.952 117.789  0.00  0.00     0.016 C 
ATOM      3  C   LIG d   1      -4.330  90.753 117.069  0.00  0.00     0.038 C 
ATOM      4  C   LIG d   1      -3.221  89.927 117.305  0.00  0.00     0.028 C 
ATOM      5  C   LIG d   1      -2.002  90.684 117.820  0.00  0.00    -0.047 C 
ATOM      6  C   LIG d   1      -2.422  91.548 119.030  0.00  0.00     0.091 C 
ENDROOT
BRANCH   1   7
ATOM      7  O   LIG d   1      -4.249  92.945 119.876  0.00  0.00    -0.368 OA
BRANCH   7   8
ATOM      8  C   LIG d   1      -4.652  94.337 119.895  0.00  0.00     0.119 C 
BRANCH   8   9
ATOM      9  C   LIG d   1      -3.923  95.013 121.072  0.00  0.00     0.028 C 
ATOM     10  C   LIG d   1      -2.598  95.667 120.644  0.00  0.00     0.006 C 
ENDBRANCH   8   9
BRANCH   8  11
ATOM     11  C   LIG d   1      -6.145  94.481 120.206  0.00  0.00     0.028 C 
ATOM     12  C   LIG d   1      -6.985  94.803 118.960  0.00  0.00     0.006 C 
ENDBRANCH   8  11
ENDBRANCH   7   8
ENDBRANCH   1   7
BRANCH   6  13
ATOM     13  N   LIG d   1      -1.307  92.386 119.543  0.00  0.00    -0.311 N 
ATOM     14  C   LIG d   1      -0.855  92.319 120.795  0.00  0.00     0.210 C 
ATOM     15  C   LIG d   1       0.289  93.284 121.122  0.00  0.00     0.109 C 
ATOM     16  O   LIG d   1      -1.272  91.530 121.656  0.00  0.00    -0.276 OA
ATOM     17  H   LIG d   1      -0.890  93.033 118.903  0.00  0.00     0.149 HD
ENDBRANCH   6  13
BRANCH   5  18
ATOM     18  N   LIG d   1      -0.967  89.687 118.154  0.00  0.00     0.381 N 
ATOM     19  H   LIG d   1      -1.391  88.791 118.289  0.00  0.00    -0.090 HD
ATOM     20  H   LIG d   1      -0.520  89.957 119.012  0.00  0.00    -0.090 HD
ATOM     21  H   LIG d   1      -0.293  89.637 117.421  0.00  0.00    -0.090 HD
ENDBRANCH   5  18
BRANCH   3  22
ATOM     22  C   LIG d   1      -5.223  90.388 116.072  0.00  0.00     0.382 C 
ATOM     23  O   LIG d   1      -5.359  89.180 115.764  0.00  0.00    -0.241 OA
ATOM     24  O   LIG d   1      -5.860  91.257 115.447  0.00  0.00    -0.241 OA
ENDBRANCH   3  22
TORSDOF 7
ENDMDL
MODEL 5
REMARK VINA RESULT:      -4.3      2.634      4.389
REMARK  7 active torsions:
REMARK  status: ('A' for Active; 'I' for Inactive)
REMARK    1  A    between atoms: C_2  and  C_3 
REMARK    2  A    between atoms: C_3  and  O_6 
REMARK    3  A    between atoms: C_3  and  C_4 
REMARK    4  A    between atoms: C_7  and  O_6 
REMARK    5  A    between atoms: C_9  and  C_10 
REMARK    6  A    between atoms: N_15  and  C_14 
REMARK    7  A    between atoms: N_20  and  C_19 
REMARK       I    between atoms: C_22  and  N_20 
ROOT
ATOM      1  C   LIG d   1      -3.990  92.631 119.133  0.00  0.00     0.161 C 
ATOM      2  C   LIG d   1      -4.859  92.179 118.127  0.00  0.00     0.016 C 
ATOM      3  C   LIG d   1      -4.544  91.118 117.246  0.00  0.00     0.038 C 
ATOM      4  C   LIG d   1      -3.393  90.334 117.411  0.00  0.00     0.028 C 
ATOM      5  C   LIG d   1      -2.249  91.075 118.096  0.00  0.00    -0.047 C 
ATOM      6  C   LIG d   1      -2.776  91.716 119.400  0.00  0.00     0.091 C 
ENDROOT
BRANCH   1   7
ATOM      7  O   LIG d   1      -4.727  92.854 120.352  0.00  0.00    -0.368 OA
BRANCH   7   8
ATOM      8  C   LIG d   1      -4.899  94.237 120.749  0.00  0.00     0.119 C 
BRANCH   8   9
ATOM      9  C   LIG d   1      -6.362  94.623 120.459  0.00  0.00     0.028 C 
ATOM     10  C   LIG d   1      -6.505  95.458 119.175  0.00  0.00     0.006 C 
ENDBRANCH   8   9
BRANCH   8  11
ATOM     11  C   LIG d   1      -4.052  95.175 119.883  0.00  0.00     0.028 C 
ATOM     12  C   LIG d   1      -2.975  95.919 120.689  0.00  0.00     0.006 C 
ENDBRANCH   8  11
ENDBRANCH   7   8
ENDBRANCH   1   7
BRANCH   6  13
ATOM     13  N   LIG d   1      -1.742  92.530 120.090  0.00  0.00    -0.311 N 
ATOM     14  C   LIG d   1      -1.430  92.382 121.376  0.00  0.00     0.210 C 
ATOM     15  C   LIG d   1      -0.350  93.337 121.894  0.00  0.00     0.109 C 
ATOM     16  O   LIG d   1      -1.923  91.529 122.130  0.00  0.00    -0.276 OA
ATOM     17  H   LIG d   1      -1.270  93.225 119.545  0.00  0.00     0.149 HD
ENDBRANCH   6  13
BRANCH   5  18
ATOM     18  N   LIG d   1      -1.164  90.102 118.328  0.00  0.00     0.381 N 
ATOM     19  H   LIG d   1      -0.315  90.587 118.540  0.00  0.00    -0.090 HD
ATOM     20  H   LIG d   1      -1.022  89.568 117.489  0.00  0.00    -0.090 HD
ATOM     21  H   LIG d   1      -1.406  89.495 119.080  0.00  0.00    -0.090 HD
ENDBRANCH   5  18
BRANCH   3  22
ATOM     22  C   LIG d   1      -5.368  90.859 116.161  0.00  0.00     0.382 C 
ATOM     23  O   LIG d   1      -5.875  91.809 115.517  0.00  0.00    -0.241 OA
ATOM     24  O   LIG d   1      -5.646  89.686 115.845  0.00  0.00    -0.241 OA
ENDBRANCH   3  22
TORSDOF 7
ENDMDL
MODEL 6
REMARK VINA RESULT:      -4.2      2.530      3.420
REMARK  7 active torsions:
REMARK  status: ('A' for Active; 'I' for Inactive)
REMARK    1  A    between atoms: C_2  and  C_3 
REMARK    2  A    between atoms: C_3  and  O_6 
REMARK    3  A    between atoms: C_3  and  C_4 
REMARK    4  A    between atoms: C_7  and  O_6 
REMARK    5  A    between atoms: C_9  and  C_10 
REMARK    6  A    between atoms: N_15  and  C_14 
REMARK    7  A    between atoms: N_20  and  C_19 
REMARK       I    between atoms: C_22  and  N_20 
ROOT
ATOM      1  C   LIG d   1      -0.100  90.832 119.895  0.00  0.00     0.161 C 
ATOM      2  C   LIG d   1       0.846  90.046 119.216  0.00  0.00     0.016 C 
ATOM      3  C   LIG d   1       0.568  89.363 118.010  0.00  0.00     0.038 C 
ATOM      4  C   LIG d   1      -0.639  89.543 117.317  0.00  0.00     0.028 C 
ATOM      5  C   LIG d   1      -1.805  89.927 118.221  0.00  0.00    -0.047 C 
ATOM      6  C   LIG d   1      -1.386  91.130 119.096  0.00  0.00     0.091 C 
ENDROOT
BRANCH   1   7
ATOM      7  O   LIG d   1       0.512  92.061 120.335  0.00  0.00    -0.368 OA
BRANCH   7   8
ATOM      8  C   LIG d   1       0.655  93.097 119.333  0.00  0.00     0.119 C 
BRANCH   8   9
ATOM      9  C   LIG d   1       2.163  93.354 119.145  0.00  0.00     0.028 C 
ATOM     10  C   LIG d   1       2.661  92.933 117.752  0.00  0.00     0.006 C 
ENDBRANCH   8   9
BRANCH   8  11
ATOM     11  C   LIG d   1       0.075  94.428 119.820  0.00  0.00     0.028 C 
ATOM     12  C   LIG d   1      -0.744  95.152 118.739  0.00  0.00     0.006 C 
ENDBRANCH   8  11
ENDBRANCH   7   8
ENDBRANCH   1   7
BRANCH   6  13
ATOM     13  N   LIG d   1      -2.441  91.517 120.069  0.00  0.00    -0.311 N 
ATOM     14  C   LIG d   1      -3.374  92.432 119.814  0.00  0.00     0.210 C 
ATOM     15  C   LIG d   1      -4.353  92.695 120.962  0.00  0.00     0.109 C 
ATOM     16  O   LIG d   1      -3.504  93.028 118.734  0.00  0.00    -0.276 OA
ATOM     17  H   LIG d   1      -2.429  91.061 120.960  0.00  0.00     0.149 HD
ENDBRANCH   6  13
BRANCH   5  18
ATOM     18  N   LIG d   1      -2.963  90.217 117.355  0.00  0.00     0.381 N 
ATOM     19  H   LIG d   1      -2.856  91.120 116.936  0.00  0.00    -0.090 HD
ATOM     20  H   LIG d   1      -3.796  90.228 117.917  0.00  0.00    -0.090 HD
ATOM     21  H   LIG d   1      -3.042  89.522 116.646  0.00  0.00    -0.090 HD
ENDBRANCH   5  18
BRANCH   3  22
ATOM     22  C   LIG d   1       1.488  88.456 117.506  0.00  0.00     0.382 C 
ATOM     23  O   LIG d   1       1.543  88.239 116.271  0.00  0.00    -0.241 OA
ATOM     24  O   LIG d   1       2.234  87.820 118.274  0.00  0.00    -0.241 OA
ENDBRANCH   3  22
TORSDOF 7
ENDMDL
MODEL 7
REMARK VINA RESULT:      -4.2      1.533      2.095
REMARK  7 active torsions:
REMARK  status: ('A' for Active; 'I' for Inactive)
REMARK    1  A    between atoms: C_2  and  C_3 
REMARK    2  A    between atoms: C_3  and  O_6 
REMARK    3  A    between atoms: C_3  and  C_4 
REMARK    4  A    between atoms: C_7  and  O_6 
REMARK    5  A    between atoms: C_9  and  C_10 
REMARK    6  A    between atoms: N_15  and  C_14 
REMARK    7  A    between atoms: N_20  and  C_19 
REMARK       I    between atoms: C_22  and  N_20 
ROOT
ATOM      1  C   LIG d   1      -3.559  92.917 120.565  0.00  0.00     0.161 C 
ATOM      2  C   LIG d   1      -2.478  92.169 120.070  0.00  0.00     0.016 C 
ATOM      3  C   LIG d   1      -2.465  91.574 118.788  0.00  0.00     0.038 C 
ATOM      4  C   LIG d   1      -3.479  91.815 117.848  0.00  0.00     0.028 C 
ATOM      5  C   LIG d   1      -4.825  92.149 118.482  0.00  0.00    -0.047 C 
ATOM      6  C   LIG d   1      -4.627  93.284 119.513  0.00  0.00     0.091 C 
ENDROOT
BRANCH   1   7
ATOM      7  O   LIG d   1      -3.073  94.105 121.220  0.00  0.00    -0.368 OA
BRANCH   7   8
ATOM      8  C   LIG d   1      -2.935  95.282 120.387  0.00  0.00     0.119 C 
BRANCH   8   9
ATOM      9  C   LIG d   1      -1.430  95.507 120.149  0.00  0.00     0.028 C 
ATOM     10  C   LIG d   1      -1.044  95.377 118.666  0.00  0.00     0.006 C 
ENDBRANCH   8   9
BRANCH   8  11
ATOM     11  C   LIG d   1      -3.424  96.539 121.112  0.00  0.00     0.028 C 
ATOM     12  C   LIG d   1      -4.321  97.424 120.233  0.00  0.00     0.006 C 
ENDBRANCH   8  11
ENDBRANCH   7   8
ENDBRANCH   1   7
BRANCH   6  13
ATOM     13  N   LIG d   1      -5.880  93.614 120.240  0.00  0.00    -0.311 N 
ATOM     14  C   LIG d   1      -6.733  94.556 119.841  0.00  0.00     0.210 C 
ATOM     15  C   LIG d   1      -7.953  94.749 120.746  0.00  0.00     0.109 C 
ATOM     16  O   LIG d   1      -6.611  95.228 118.805  0.00  0.00    -0.276 OA
ATOM     17  H   LIG d   1      -6.073  93.095 121.074  0.00  0.00     0.149 HD
ENDBRANCH   6  13
BRANCH   5  18
ATOM     18  N   LIG d   1      -5.752  92.511 117.394  0.00  0.00     0.381 N 
ATOM     19  H   LIG d   1      -5.807  91.763 116.732  0.00  0.00    -0.090 HD
ATOM     20  H   LIG d   1      -5.397  93.325 116.922  0.00  0.00    -0.090 HD
ATOM     21  H   LIG d   1      -6.656  92.702 117.766  0.00  0.00    -0.090 HD
ENDBRANCH   5  18
BRANCH   3  22
ATOM     22  C   LIG d   1      -1.448  90.694 118.448  0.00  0.00     0.382 C 
ATOM     23  O   LIG d   1      -1.666  89.770 117.629  0.00  0.00    -0.241 OA
ATOM     24  O   LIG d   1      -0.328  90.787 118.985  0.00  0.00    -0.241 OA
ENDBRANCH   3  22
TORSDOF 7
ENDMDL
MODEL 8
REMARK VINA RESULT:      -4.1      4.170      6.900
REMARK  7 active torsions:
REMARK  status: ('A' for Active; 'I' for Inactive)
REMARK    1  A    between atoms: C_2  and  C_3 
REMARK    2  A    between atoms: C_3  and  O_6 
REMARK    3  A    between atoms: C_3  and  C_4 
REMARK    4  A    between atoms: C_7  and  O_6 
REMARK    5  A    between atoms: C_9  and  C_10 
REMARK    6  A    between atoms: N_15  and  C_14 
REMARK    7  A    between atoms: N_20  and  C_19 
REMARK       I    between atoms: C_22  and  N_20 
ROOT
ATOM      1  C   LIG d   1       1.090  89.997 117.449  0.00  0.00     0.161 C 
ATOM      2  C   LIG d   1      -0.294  89.760 117.400  0.00  0.00     0.016 C 
ATOM      3  C   LIG d   1      -1.263  90.746 117.695  0.00  0.00     0.038 C 
ATOM      4  C   LIG d   1      -0.914  92.087 117.914  0.00  0.00     0.028 C 
ATOM      5  C   LIG d   1       0.495  92.263 118.470  0.00  0.00    -0.047 C 
ATOM      6  C   LIG d   1       1.487  91.482 117.578  0.00  0.00     0.091 C 
ENDROOT
BRANCH   1   7
ATOM      7  O   LIG d   1       1.728  89.405 116.300  0.00  0.00    -0.368 OA
BRANCH   7   8
ATOM      8  C   LIG d   1       2.505  88.208 116.549  0.00  0.00     0.119 C 
BRANCH   8   9
ATOM      9  C   LIG d   1       1.690  87.010 116.026  0.00  0.00     0.028 C 
ATOM     10  C   LIG d   1       1.432  85.955 117.115  0.00  0.00     0.006 C 
ENDBRANCH   8   9
BRANCH   8  11
ATOM     11  C   LIG d   1       2.677  87.957 118.050  0.00  0.00     0.028 C 
ATOM     12  C   LIG d   1       4.126  88.147 118.524  0.00  0.00     0.006 C 
ENDBRANCH   8  11
ENDBRANCH   7   8
ENDBRANCH   1   7
BRANCH   6  13
ATOM     13  N   LIG d   1       2.878  91.532 118.099  0.00  0.00    -0.311 N 
ATOM     14  C   LIG d   1       3.749  92.487 117.775  0.00  0.00     0.210 C 
ATOM     15  C   LIG d   1       5.136  92.339 118.408  0.00  0.00     0.109 C 
ATOM     16  O   LIG d   1       3.494  93.460 117.049  0.00  0.00    -0.276 OA
ATOM     17  H   LIG d   1       3.159  90.799 118.719  0.00  0.00     0.149 HD
ENDBRANCH   6  13
BRANCH   5  18
ATOM     18  N   LIG d   1       0.777  93.710 118.519  0.00  0.00     0.381 N 
ATOM     19  H   LIG d   1       1.766  93.862 118.533  0.00  0.00    -0.090 HD
ATOM     20  H   LIG d   1       0.388  94.088 119.365  0.00  0.00    -0.090 HD
ATOM     21  H   LIG d   1       0.375  94.163 117.728  0.00  0.00    -0.090 HD
ENDBRANCH   5  18
BRANCH   3  22
ATOM     22  C   LIG d   1      -2.597  90.385 117.812  0.00  0.00     0.382 C 
ATOM     23  O   LIG d   1      -3.454  91.245 118.129  0.00  0.00    -0.241 OA
ATOM     24  O   LIG d   1      -2.948  89.201 117.650  0.00  0.00    -0.241 OA
ENDBRANCH   3  22
TORSDOF 7
ENDMDL
MODEL 9
REMARK VINA RESULT:      -4.0      2.815      4.218
REMARK  7 active torsions:
REMARK  status: ('A' for Active; 'I' for Inactive)
REMARK    1  A    between atoms: C_2  and  C_3 
REMARK    2  A    between atoms: C_3  and  O_6 
REMARK    3  A    between atoms: C_3  and  C_4 
REMARK    4  A    between atoms: C_7  and  O_6 
REMARK    5  A    between atoms: C_9  and  C_10 
REMARK    6  A    between atoms: N_15  and  C_14 
REMARK    7  A    between atoms: N_20  and  C_19 
REMARK       I    between atoms: C_22  and  N_20 
ROOT
ATOM      1  C   LIG d   1       0.161  93.453 118.997  0.00  0.00     0.161 C 
ATOM      2  C   LIG d   1       1.445  93.282 118.453  0.00  0.00     0.016 C 
ATOM      3  C   LIG d   1       1.782  92.230 117.570  0.00  0.00     0.038 C 
ATOM      4  C   LIG d   1       0.812  91.360 117.050  0.00  0.00     0.028 C 
ATOM      5  C   LIG d   1      -0.397  91.185 117.962  0.00  0.00    -0.047 C 
ATOM      6  C   LIG d   1      -0.936  92.580 118.353  0.00  0.00     0.091 C 
ENDROOT
BRANCH   1   7
ATOM      7  O   LIG d   1      -0.211  94.845 118.943  0.00  0.00    -0.368 OA
BRANCH   7   8
ATOM      8  C   LIG d   1      -0.414  95.501 120.218  0.00  0.00     0.119 C 
BRANCH   8   9
ATOM      9  C   LIG d   1      -0.026  94.497 121.322  0.00  0.00     0.028 C 
ATOM     10  C   LIG d   1      -1.148  94.297 122.354  0.00  0.00     0.006 C 
ENDBRANCH   8   9
BRANCH   8  11
ATOM     11  C   LIG d   1      -1.895  95.811 120.456  0.00  0.00     0.028 C 
ATOM     12  C   LIG d   1      -2.634  96.210 119.169  0.00  0.00     0.006 C 
ENDBRANCH   8  11
ENDBRANCH   7   8
ENDBRANCH   1   7
BRANCH   6  13
ATOM     13  N   LIG d   1      -2.069  92.501 119.313  0.00  0.00    -0.311 N 
ATOM     14  C   LIG d   1      -3.345  92.440 118.937  0.00  0.00     0.210 C 
ATOM     15  C   LIG d   1      -4.356  92.384 120.087  0.00  0.00     0.109 C 
ATOM     16  O   LIG d   1      -3.734  92.394 117.761  0.00  0.00    -0.276 OA
ATOM     17  H   LIG d   1      -1.841  92.501 120.288  0.00  0.00     0.149 HD
ENDBRANCH   6  13
BRANCH   5  18
ATOM     18  N   LIG d   1      -1.387  90.365 117.238  0.00  0.00     0.381 N 
ATOM     19  H   LIG d   1      -1.226  90.431 116.252  0.00  0.00    -0.090 HD
ATOM     20  H   LIG d   1      -2.307  90.720 117.431  0.00  0.00    -0.090 HD
ATOM     21  H   LIG d   1      -1.321  89.415 117.529  0.00  0.00    -0.090 HD
ENDBRANCH   5  18
BRANCH   3  22
ATOM     22  C   LIG d   1       3.109  92.016 117.231  0.00  0.00     0.382 C 
ATOM     23  O   LIG d   1       3.396  91.281 116.255  0.00  0.00    -0.241 OA
ATOM     24  O   LIG d   1       4.024  92.513 117.915  0.00  0.00    -0.241 OA
ENDBRANCH   3  22
TORSDOF 7
ENDMDL
