MODEL 1
REMARK VINA RESULT:      -5.4      0.000      0.000
REMARK  7 active torsions:
REMARK  status: ('A' for Active; 'I' for Inactive)
REMARK    1  A    between atoms: C_2  and  C_3 
REMARK    2  A    between atoms: C_3  and  O_6 
REMARK    3  A    between atoms: C_3  and  C_4 
REMARK    4  A    between atoms: C_7  and  O_6 
REMARK    5  A    between atoms: C_9  and  C_10 
REMARK    6  A    between atoms: N_15  and  C_14 
REMARK    7  A    between atoms: N_20  and  C_19 
REMARK       I    between atoms: C_22  and  N_20 
ROOT
ATOM      1  C   LIG d   1      -4.441  92.715 118.219  0.00  0.00     0.161 C 
ATOM      2  C   LIG d   1      -4.960  91.859 117.233  0.00  0.00     0.016 C 
ATOM      3  C   LIG d   1      -6.207  92.067 116.601  0.00  0.00     0.038 C 
ATOM      4  C   LIG d   1      -6.957  93.235 116.805  0.00  0.00     0.028 C 
ATOM      5  C   LIG d   1      -6.714  93.880 118.165  0.00  0.00    -0.047 C 
ATOM      6  C   LIG d   1      -5.192  94.053 118.374  0.00  0.00     0.091 C 
ENDROOT
BRANCH   1   7
ATOM      7  O   LIG d   1      -3.041  92.952 117.972  0.00  0.00    -0.368 OA
BRANCH   7   8
ATOM      8  C   LIG d   1      -2.113  92.231 118.819  0.00  0.00     0.119 C 
BRANCH   8   9
ATOM      9  C   LIG d   1      -0.828  93.076 118.923  0.00  0.00     0.028 C 
ATOM     10  C   LIG d   1       0.125  92.842 117.739  0.00  0.00     0.006 C 
ENDBRANCH   8   9
BRANCH   8  11
ATOM     11  C   LIG d   1      -1.679  90.911 118.174  0.00  0.00     0.028 C 
ATOM     12  C   LIG d   1      -1.676  89.737 119.166  0.00  0.00     0.006 C 
ENDBRANCH   8  11
ENDBRANCH   7   8
ENDBRANCH   1   7
BRANCH   6  13
ATOM     13  N   LIG d   1      -4.863  94.601 119.716  0.00  0.00    -0.311 N 
ATOM     14  C   LIG d   1      -4.662  95.896 119.950  0.00  0.00     0.210 C 
ATOM     15  C   LIG d   1      -4.314  96.245 121.401  0.00  0.00     0.109 C 
ATOM     16  O   LIG d   1      -4.770  96.794 119.101  0.00  0.00    -0.276 OA
ATOM     17  H   LIG d   1      -4.787  93.946 120.470  0.00  0.00     0.149 HD
ENDBRANCH   6  13
BRANCH   5  18
ATOM     18  N   LIG d   1      -7.450  95.158 118.190  0.00  0.00     0.381 N 
ATOM     19  H   LIG d   1      -8.412  94.991 118.411  0.00  0.00    -0.090 HD
ATOM     20  H   LIG d   1      -7.405  95.577 117.278  0.00  0.00    -0.090 HD
ATOM     21  H   LIG d   1      -7.048  95.770 118.865  0.00  0.00    -0.090 HD
ENDBRANCH   5  18
BRANCH   3  22
ATOM     22  C   LIG d   1      -6.736  91.080 115.783  0.00  0.00     0.382 C 
ATOM     23  O   LIG d   1      -7.939  91.135 115.430  0.00  0.00    -0.241 OA
ATOM     24  O   LIG d   1      -6.037  90.110 115.430  0.00  0.00    -0.241 OA
ENDBRANCH   3  22
TORSDOF 7
ENDMDL
MODEL 2
REMARK VINA RESULT:      -5.3      2.660      4.506
REMARK  7 active torsions:
REMARK  status: ('A' for Active; 'I' for Inactive)
REMARK    1  A    between atoms: C_2  and  C_3 
REMARK    2  A    between atoms: C_3  and  O_6 
REMARK    3  A    between atoms: C_3  and  C_4 
REMARK    4  A    between atoms: C_7  and  O_6 
REMARK    5  A    between atoms: C_9  and  C_10 
REMARK    6  A    between atoms: N_15  and  C_14 
REMARK    7  A    between atoms: N_20  and  C_19 
REMARK       I    between atoms: C_22  and  N_20 
ROOT
ATOM      1  C   LIG d   1      -4.752  94.180 118.765  0.00  0.00     0.161 C 
ATOM      2  C   LIG d   1      -6.100  94.564 118.672  0.00  0.00     0.016 C 
ATOM      3  C   LIG d   1      -7.062  93.854 117.917  0.00  0.00     0.038 C 
ATOM      4  C   LIG d   1      -6.771  92.618 117.321  0.00  0.00     0.028 C 
ATOM      5  C   LIG d   1      -5.298  92.447 116.968  0.00  0.00    -0.047 C 
ATOM      6  C   LIG d   1      -4.442  92.773 118.213  0.00  0.00     0.091 C 
ENDROOT
BRANCH   1   7
ATOM      7  O   LIG d   1      -4.305  94.292 120.131  0.00  0.00    -0.368 OA
BRANCH   7   8
ATOM      8  C   LIG d   1      -4.562  93.148 120.982  0.00  0.00     0.119 C 
BRANCH   8   9
ATOM      9  C   LIG d   1      -5.507  93.611 122.107  0.00  0.00     0.028 C 
ATOM     10  C   LIG d   1      -6.900  92.968 122.006  0.00  0.00     0.006 C 
ENDBRANCH   8   9
BRANCH   8  11
ATOM     11  C   LIG d   1      -3.286  92.682 121.689  0.00  0.00     0.028 C 
ATOM     12  C   LIG d   1      -2.076  93.582 121.390  0.00  0.00     0.006 C 
ENDBRANCH   8  11
ENDBRANCH   7   8
ENDBRANCH   1   7
BRANCH   6  13
ATOM     13  N   LIG d   1      -2.984  92.712 117.931  0.00  0.00    -0.311 N 
ATOM     14  C   LIG d   1      -2.229  91.647 118.197  0.00  0.00     0.210 C 
ATOM     15  C   LIG d   1      -0.746  91.802 117.846  0.00  0.00     0.109 C 
ATOM     16  O   LIG d   1      -2.653  90.578 118.661  0.00  0.00    -0.276 OA
ATOM     17  H   LIG d   1      -2.564  93.525 117.525  0.00  0.00     0.149 HD
ENDBRANCH   6  13
BRANCH   5  18
ATOM     18  N   LIG d   1      -5.112  91.066 116.484  0.00  0.00     0.381 N 
ATOM     19  H   LIG d   1      -4.140  90.889 116.328  0.00  0.00    -0.090 HD
ATOM     20  H   LIG d   1      -5.596  90.961 115.609  0.00  0.00    -0.090 HD
ATOM     21  H   LIG d   1      -5.472  90.420 117.151  0.00  0.00    -0.090 HD
ENDBRANCH   5  18
BRANCH   3  22
ATOM     22  C   LIG d   1      -8.320  94.401 117.718  0.00  0.00     0.382 C 
ATOM     23  O   LIG d   1      -9.022  94.734 118.704  0.00  0.00    -0.241 OA
ATOM     24  O   LIG d   1      -8.781  94.525 116.568  0.00  0.00    -0.241 OA
ENDBRANCH   3  22
TORSDOF 7
ENDMDL
MODEL 3
REMARK VINA RESULT:      -5.2      1.343      1.548
REMARK  7 active torsions:
REMARK  status: ('A' for Active; 'I' for Inactive)
REMARK    1  A    between atoms: C_2  and  C_3 
REMARK    2  A    between atoms: C_3  and  O_6 
REMARK    3  A    between atoms: C_3  and  C_4 
REMARK    4  A    between atoms: C_7  and  O_6 
REMARK    5  A    between atoms: C_9  and  C_10 
REMARK    6  A    between atoms: N_15  and  C_14 
REMARK    7  A    between atoms: N_20  and  C_19 
REMARK       I    between atoms: C_22  and  N_20 
ROOT
ATOM      1  C   LIG d   1      -4.186  92.922 118.564  0.00  0.00     0.161 C 
ATOM      2  C   LIG d   1      -5.051  92.549 117.521  0.00  0.00     0.016 C 
ATOM      3  C   LIG d   1      -6.306  93.158 117.296  0.00  0.00     0.038 C 
ATOM      4  C   LIG d   1      -6.720  94.292 118.011  0.00  0.00     0.028 C 
ATOM      5  C   LIG d   1      -6.104  94.387 119.403  0.00  0.00    -0.047 C 
ATOM      6  C   LIG d   1      -4.571  94.230 119.286  0.00  0.00     0.091 C 
ENDROOT
BRANCH   1   7
ATOM      7  O   LIG d   1      -2.833  92.999 118.073  0.00  0.00    -0.368 OA
BRANCH   7   8
ATOM      8  C   LIG d   1      -1.854  92.193 118.773  0.00  0.00     0.119 C 
BRANCH   8   9
ATOM      9  C   LIG d   1      -0.597  93.061 118.972  0.00  0.00     0.028 C 
ATOM     10  C   LIG d   1       0.250  93.171 117.693  0.00  0.00     0.006 C 
ENDBRANCH   8   9
BRANCH   8  11
ATOM     11  C   LIG d   1      -1.397  91.006 117.919  0.00  0.00     0.028 C 
ATOM     12  C   LIG d   1      -2.433  89.873 117.870  0.00  0.00     0.006 C 
ENDBRANCH   8  11
ENDBRANCH   7   8
ENDBRANCH   1   7
BRANCH   6  13
ATOM     13  N   LIG d   1      -3.898  94.227 120.611  0.00  0.00    -0.311 N 
ATOM     14  C   LIG d   1      -2.968  95.113 120.963  0.00  0.00     0.210 C 
ATOM     15  C   LIG d   1      -2.388  94.919 122.367  0.00  0.00     0.109 C 
ATOM     16  O   LIG d   1      -2.591  96.061 120.257  0.00  0.00    -0.276 OA
ATOM     17  H   LIG d   1      -4.166  93.511 121.257  0.00  0.00     0.149 HD
ENDBRANCH   6  13
BRANCH   5  18
ATOM     18  N   LIG d   1      -6.510  95.681 119.982  0.00  0.00     0.381 N 
ATOM     19  H   LIG d   1      -5.738  96.317 119.966  0.00  0.00    -0.090 HD
ATOM     20  H   LIG d   1      -6.781  95.539 120.939  0.00  0.00    -0.090 HD
ATOM     21  H   LIG d   1      -7.274  96.061 119.467  0.00  0.00    -0.090 HD
ENDBRANCH   5  18
BRANCH   3  22
ATOM     22  C   LIG d   1      -7.181  92.607 116.372  0.00  0.00     0.382 C 
ATOM     23  O   LIG d   1      -7.622  93.310 115.430  0.00  0.00    -0.241 OA
ATOM     24  O   LIG d   1      -7.570  91.430 116.493  0.00  0.00    -0.241 OA
ENDBRANCH   3  22
TORSDOF 7
ENDMDL
MODEL 4
REMARK VINA RESULT:      -5.1      2.495      4.451
REMARK  7 active torsions:
REMARK  status: ('A' for Active; 'I' for Inactive)
REMARK    1  A    between atoms: C_2  and  C_3 
REMARK    2  A    between atoms: C_3  and  O_6 
REMARK    3  A    between atoms: C_3  and  C_4 
REMARK    4  A    between atoms: C_7  and  O_6 
REMARK    5  A    between atoms: C_9  and  C_10 
REMARK    6  A    between atoms: N_15  and  C_14 
REMARK    7  A    between atoms: N_20  and  C_19 
REMARK       I    between atoms: C_22  and  N_20 
ROOT
ATOM      1  C   LIG d   1      -4.802  93.538 118.742  0.00  0.00     0.161 C 
ATOM      2  C   LIG d   1      -6.093  94.085 118.656  0.00  0.00     0.016 C 
ATOM      3  C   LIG d   1      -7.090  93.594 117.783  0.00  0.00     0.038 C 
ATOM      4  C   LIG d   1      -6.910  92.417 117.040  0.00  0.00     0.028 C 
ATOM      5  C   LIG d   1      -5.450  92.123 116.715  0.00  0.00    -0.047 C 
ATOM      6  C   LIG d   1      -4.623  92.186 118.020  0.00  0.00     0.091 C 
ENDROOT
BRANCH   1   7
ATOM      7  O   LIG d   1      -4.410  93.424 120.124  0.00  0.00    -0.368 OA
BRANCH   7   8
ATOM      8  C   LIG d   1      -3.571  94.487 120.639  0.00  0.00     0.119 C 
BRANCH   8   9
ATOM      9  C   LIG d   1      -2.117  93.977 120.623  0.00  0.00     0.028 C 
ATOM     10  C   LIG d   1      -1.990  92.546 121.171  0.00  0.00     0.006 C 
ENDBRANCH   8   9
BRANCH   8  11
ATOM     11  C   LIG d   1      -3.882  94.779 122.110  0.00  0.00     0.028 C 
ATOM     12  C   LIG d   1      -5.245  94.224 122.553  0.00  0.00     0.006 C 
ENDBRANCH   8  11
ENDBRANCH   7   8
ENDBRANCH   1   7
BRANCH   6  13
ATOM     13  N   LIG d   1      -3.169  91.993 117.780  0.00  0.00    -0.311 N 
ATOM     14  C   LIG d   1      -2.561  90.812 117.879  0.00  0.00     0.210 C 
ATOM     15  C   LIG d   1      -1.053  90.838 117.610  0.00  0.00     0.109 C 
ATOM     16  O   LIG d   1      -3.132  89.741 118.132  0.00  0.00    -0.276 OA
ATOM     17  H   LIG d   1      -2.635  92.804 117.539  0.00  0.00     0.149 HD
ENDBRANCH   6  13
BRANCH   5  18
ATOM     18  N   LIG d   1      -5.396  90.802 116.060  0.00  0.00     0.381 N 
ATOM     19  H   LIG d   1      -4.655  90.787 115.389  0.00  0.00    -0.090 HD
ATOM     20  H   LIG d   1      -6.263  90.644 115.577  0.00  0.00    -0.090 HD
ATOM     21  H   LIG d   1      -5.252  90.089 116.741  0.00  0.00    -0.090 HD
ENDBRANCH   5  18
BRANCH   3  22
ATOM     22  C   LIG d   1      -8.269  94.304 117.617  0.00  0.00     0.382 C 
ATOM     23  O   LIG d   1      -8.693  94.554 116.463  0.00  0.00    -0.241 OA
ATOM     24  O   LIG d   1      -8.891  94.736 118.606  0.00  0.00    -0.241 OA
ENDBRANCH   3  22
TORSDOF 7
ENDMDL
MODEL 5
REMARK VINA RESULT:      -5.0      2.604      4.746
REMARK  7 active torsions:
REMARK  status: ('A' for Active; 'I' for Inactive)
REMARK    1  A    between atoms: C_2  and  C_3 
REMARK    2  A    between atoms: C_3  and  O_6 
REMARK    3  A    between atoms: C_3  and  C_4 
REMARK    4  A    between atoms: C_7  and  O_6 
REMARK    5  A    between atoms: C_9  and  C_10 
REMARK    6  A    between atoms: N_15  and  C_14 
REMARK    7  A    between atoms: N_20  and  C_19 
REMARK       I    between atoms: C_22  and  N_20 
ROOT
ATOM      1  C   LIG d   1      -5.073  94.370 119.228  0.00  0.00     0.161 C 
ATOM      2  C   LIG d   1      -6.260  94.476 118.484  0.00  0.00     0.016 C 
ATOM      3  C   LIG d   1      -6.623  93.566 117.464  0.00  0.00     0.038 C 
ATOM      4  C   LIG d   1      -5.891  92.395 117.221  0.00  0.00     0.028 C 
ATOM      5  C   LIG d   1      -4.419  92.509 117.603  0.00  0.00    -0.047 C 
ATOM      6  C   LIG d   1      -4.317  93.036 119.053  0.00  0.00     0.091 C 
ENDROOT
BRANCH   1   7
ATOM      7  O   LIG d   1      -5.348  94.610 120.623  0.00  0.00    -0.368 OA
BRANCH   7   8
ATOM      8  C   LIG d   1      -6.149  93.608 121.296  0.00  0.00     0.119 C 
BRANCH   8   9
ATOM      9  C   LIG d   1      -7.308  94.340 122.000  0.00  0.00     0.028 C 
ATOM     10  C   LIG d   1      -8.363  93.369 122.556  0.00  0.00     0.006 C 
ENDBRANCH   8   9
BRANCH   8  11
ATOM     11  C   LIG d   1      -5.360  92.926 122.418  0.00  0.00     0.028 C 
ATOM     12  C   LIG d   1      -4.167  93.765 122.903  0.00  0.00     0.006 C 
ENDBRANCH   8  11
ENDBRANCH   7   8
ENDBRANCH   1   7
BRANCH   6  13
ATOM     13  N   LIG d   1      -2.910  93.258 119.477  0.00  0.00    -0.311 N 
ATOM     14  C   LIG d   1      -2.183  92.341 120.114  0.00  0.00     0.210 C 
ATOM     15  C   LIG d   1      -0.762  92.781 120.479  0.00  0.00     0.109 C 
ATOM     16  O   LIG d   1      -2.570  91.193 120.382  0.00  0.00    -0.276 OA
ATOM     17  H   LIG d   1      -2.507  94.151 119.272  0.00  0.00     0.149 HD
ENDBRANCH   6  13
BRANCH   5  18
ATOM     18  N   LIG d   1      -3.807  91.179 117.427  0.00  0.00     0.381 N 
ATOM     19  H   LIG d   1      -3.810  90.687 118.298  0.00  0.00    -0.090 HD
ATOM     20  H   LIG d   1      -2.853  91.295 117.133  0.00  0.00    -0.090 HD
ATOM     21  H   LIG d   1      -4.312  90.660 116.742  0.00  0.00    -0.090 HD
ENDBRANCH   5  18
BRANCH   3  22
ATOM     22  C   LIG d   1      -7.708  93.846 116.648  0.00  0.00     0.382 C 
ATOM     23  O   LIG d   1      -7.670  93.547 115.430  0.00  0.00    -0.241 OA
ATOM     24  O   LIG d   1      -8.707  94.434 117.105  0.00  0.00    -0.241 OA
ENDBRANCH   3  22
TORSDOF 7
ENDMDL
MODEL 6
REMARK VINA RESULT:      -4.7      2.476      4.678
REMARK  7 active torsions:
REMARK  status: ('A' for Active; 'I' for Inactive)
REMARK    1  A    between atoms: C_2  and  C_3 
REMARK    2  A    between atoms: C_3  and  O_6 
REMARK    3  A    between atoms: C_3  and  C_4 
REMARK    4  A    between atoms: C_7  and  O_6 
REMARK    5  A    between atoms: C_9  and  C_10 
REMARK    6  A    between atoms: N_15  and  C_14 
REMARK    7  A    between atoms: N_20  and  C_19 
REMARK       I    between atoms: C_22  and  N_20 
ROOT
ATOM      1  C   LIG d   1      -5.167  94.377 119.253  0.00  0.00     0.161 C 
ATOM      2  C   LIG d   1      -6.334  94.461 118.477  0.00  0.00     0.016 C 
ATOM      3  C   LIG d   1      -6.645  93.553 117.438  0.00  0.00     0.038 C 
ATOM      4  C   LIG d   1      -5.877  92.403 117.204  0.00  0.00     0.028 C 
ATOM      5  C   LIG d   1      -4.420  92.551 117.630  0.00  0.00    -0.047 C 
ATOM      6  C   LIG d   1      -4.372  93.065 119.087  0.00  0.00     0.091 C 
ENDROOT
BRANCH   1   7
ATOM      7  O   LIG d   1      -5.487  94.596 120.642  0.00  0.00    -0.368 OA
BRANCH   7   8
ATOM      8  C   LIG d   1      -4.806  95.701 121.286  0.00  0.00     0.119 C 
BRANCH   8   9
ATOM      9  C   LIG d   1      -5.873  96.543 122.011  0.00  0.00     0.028 C 
ATOM     10  C   LIG d   1      -6.866  97.198 121.035  0.00  0.00     0.006 C 
ENDBRANCH   8   9
BRANCH   8  11
ATOM     11  C   LIG d   1      -4.176  96.644 120.256  0.00  0.00     0.028 C 
ATOM     12  C   LIG d   1      -2.877  97.294 120.760  0.00  0.00     0.006 C 
ENDBRANCH   8  11
ENDBRANCH   7   8
ENDBRANCH   1   7
BRANCH   6  13
ATOM     13  N   LIG d   1      -2.984  93.317 119.554  0.00  0.00    -0.311 N 
ATOM     14  C   LIG d   1      -2.486  92.812 120.681  0.00  0.00     0.210 C 
ATOM     15  C   LIG d   1      -1.039  93.213 120.986  0.00  0.00     0.109 C 
ATOM     16  O   LIG d   1      -3.095  92.044 121.441  0.00  0.00    -0.276 OA
ATOM     17  H   LIG d   1      -2.410  93.905 118.981  0.00  0.00     0.149 HD
ENDBRANCH   6  13
BRANCH   5  18
ATOM     18  N   LIG d   1      -3.770  91.238 117.458  0.00  0.00     0.381 N 
ATOM     19  H   LIG d   1      -3.728  90.763 118.338  0.00  0.00    -0.090 HD
ATOM     20  H   LIG d   1      -2.830  91.380 117.132  0.00  0.00    -0.090 HD
ATOM     21  H   LIG d   1      -4.278  90.689 116.800  0.00  0.00    -0.090 HD
ENDBRANCH   5  18
BRANCH   3  22
ATOM     22  C   LIG d   1      -7.714  93.814 116.594  0.00  0.00     0.382 C 
ATOM     23  O   LIG d   1      -8.701  94.463 117.015  0.00  0.00    -0.241 OA
ATOM     24  O   LIG d   1      -7.722  93.370 115.430  0.00  0.00    -0.241 OA
ENDBRANCH   3  22
TORSDOF 7
ENDMDL
MODEL 7
REMARK VINA RESULT:      -4.7      2.805      5.278
REMARK  7 active torsions:
REMARK  status: ('A' for Active; 'I' for Inactive)
REMARK    1  A    between atoms: C_2  and  C_3 
REMARK    2  A    between atoms: C_3  and  O_6 
REMARK    3  A    between atoms: C_3  and  C_4 
REMARK    4  A    between atoms: C_7  and  O_6 
REMARK    5  A    between atoms: C_9  and  C_10 
REMARK    6  A    between atoms: N_15  and  C_14 
REMARK    7  A    between atoms: N_20  and  C_19 
REMARK       I    between atoms: C_22  and  N_20 
ROOT
ATOM      1  C   LIG d   1      -5.935  94.498 119.656  0.00  0.00     0.161 C 
ATOM      2  C   LIG d   1      -6.941  94.477 118.675  0.00  0.00     0.016 C 
ATOM      3  C   LIG d   1      -6.859  93.704 117.494  0.00  0.00     0.038 C 
ATOM      4  C   LIG d   1      -5.826  92.779 117.283  0.00  0.00     0.028 C 
ATOM      5  C   LIG d   1      -4.534  93.138 118.009  0.00  0.00    -0.047 C 
ATOM      6  C   LIG d   1      -4.853  93.410 119.496  0.00  0.00     0.091 C 
ENDROOT
BRANCH   1   7
ATOM      7  O   LIG d   1      -6.530  94.425 120.967  0.00  0.00    -0.368 OA
BRANCH   7   8
ATOM      8  C   LIG d   1      -7.898  94.889 121.073  0.00  0.00     0.119 C 
BRANCH   8   9
ATOM      9  C   LIG d   1      -7.864  96.286 121.722  0.00  0.00     0.028 C 
ATOM     10  C   LIG d   1      -6.899  96.354 122.918  0.00  0.00     0.006 C 
ENDBRANCH   8   9
BRANCH   8  11
ATOM     11  C   LIG d   1      -8.710  94.015 122.033  0.00  0.00     0.028 C 
ATOM     12  C   LIG d   1     -10.181  94.448 122.135  0.00  0.00     0.006 C 
ENDBRANCH   8  11
ENDBRANCH   7   8
ENDBRANCH   1   7
BRANCH   6  13
ATOM     13  N   LIG d   1      -3.657  93.850 120.261  0.00  0.00    -0.311 N 
ATOM     14  C   LIG d   1      -2.855  93.011 120.914  0.00  0.00     0.210 C 
ATOM     15  C   LIG d   1      -1.690  93.675 121.655  0.00  0.00     0.109 C 
ATOM     16  O   LIG d   1      -2.979  91.777 120.924  0.00  0.00    -0.276 OA
ATOM     17  H   LIG d   1      -3.463  94.833 120.280  0.00  0.00     0.149 HD
ENDBRANCH   6  13
BRANCH   5  18
ATOM     18  N   LIG d   1      -3.589  92.021 117.815  0.00  0.00     0.381 N 
ATOM     19  H   LIG d   1      -3.999  91.170 118.143  0.00  0.00    -0.090 HD
ATOM     20  H   LIG d   1      -2.760  92.200 118.353  0.00  0.00    -0.090 HD
ATOM     21  H   LIG d   1      -3.356  91.936 116.850  0.00  0.00    -0.090 HD
ENDBRANCH   5  18
BRANCH   3  22
ATOM     22  C   LIG d   1      -7.798  93.884 116.489  0.00  0.00     0.382 C 
ATOM     23  O   LIG d   1      -8.753  94.679 116.658  0.00  0.00    -0.241 OA
ATOM     24  O   LIG d   1      -7.725  93.228 115.432  0.00  0.00    -0.241 OA
ENDBRANCH   3  22
TORSDOF 7
ENDMDL
MODEL 8
REMARK VINA RESULT:      -4.5      4.311      7.593
REMARK  7 active torsions:
REMARK  status: ('A' for Active; 'I' for Inactive)
REMARK    1  A    between atoms: C_2  and  C_3 
REMARK    2  A    between atoms: C_3  and  O_6 
REMARK    3  A    between atoms: C_3  and  C_4 
REMARK    4  A    between atoms: C_7  and  O_6 
REMARK    5  A    between atoms: C_9  and  C_10 
REMARK    6  A    between atoms: N_15  and  C_14 
REMARK    7  A    between atoms: N_20  and  C_19 
REMARK       I    between atoms: C_22  and  N_20 
ROOT
ATOM      1  C   LIG d   1       1.046  90.240 116.897  0.00  0.00     0.161 C 
ATOM      2  C   LIG d   1       2.419  90.534 116.850  0.00  0.00     0.016 C 
ATOM      3  C   LIG d   1       2.979  91.719 117.380  0.00  0.00     0.038 C 
ATOM      4  C   LIG d   1       2.219  92.626 118.133  0.00  0.00     0.028 C 
ATOM      5  C   LIG d   1       0.737  92.620 117.773  0.00  0.00    -0.047 C 
ATOM      6  C   LIG d   1       0.218  91.165 117.812  0.00  0.00     0.091 C 
ENDROOT
BRANCH   1   7
ATOM      7  O   LIG d   1       0.855  88.861 117.273  0.00  0.00    -0.368 OA
BRANCH   7   8
ATOM      8  C   LIG d   1       1.228  88.512 118.628  0.00  0.00     0.119 C 
BRANCH   8   9
ATOM      9  C   LIG d   1       2.105  87.247 118.556  0.00  0.00     0.028 C 
ATOM     10  C   LIG d   1       2.386  86.810 117.109  0.00  0.00     0.006 C 
ENDBRANCH   8   9
BRANCH   8  11
ATOM     11  C   LIG d   1       0.004  88.111 119.457  0.00  0.00     0.028 C 
ATOM     12  C   LIG d   1       0.084  86.667 119.977  0.00  0.00     0.006 C 
ENDBRANCH   8  11
ENDBRANCH   7   8
ENDBRANCH   1   7
BRANCH   6  13
ATOM     13  N   LIG d   1      -1.204  91.059 117.391  0.00  0.00    -0.311 N 
ATOM     14  C   LIG d   1      -2.223  91.045 118.247  0.00  0.00     0.210 C 
ATOM     15  C   LIG d   1      -3.607  90.909 117.603  0.00  0.00     0.109 C 
ATOM     16  O   LIG d   1      -2.116  91.164 119.477  0.00  0.00    -0.276 OA
ATOM     17  H   LIG d   1      -1.384  90.990 116.408  0.00  0.00     0.149 HD
ENDBRANCH   6  13
BRANCH   5  18
ATOM     18  N   LIG d   1       0.044  93.508 118.725  0.00  0.00     0.381 N 
ATOM     19  H   LIG d   1       0.508  94.393 118.762  0.00  0.00    -0.090 HD
ATOM     20  H   LIG d   1       0.079  93.094 119.640  0.00  0.00    -0.090 HD
ATOM     21  H   LIG d   1      -0.904  93.634 118.445  0.00  0.00    -0.090 HD
ENDBRANCH   5  18
BRANCH   3  22
ATOM     22  C   LIG d   1       4.307  92.025 117.124  0.00  0.00     0.382 C 
ATOM     23  O   LIG d   1       4.757  93.160 117.417  0.00  0.00    -0.241 OA
ATOM     24  O   LIG d   1       5.050  91.198 116.563  0.00  0.00    -0.241 OA
ENDBRANCH   3  22
TORSDOF 7
ENDMDL
MODEL 9
REMARK VINA RESULT:      -4.4      3.893      7.027
REMARK  7 active torsions:
REMARK  status: ('A' for Active; 'I' for Inactive)
REMARK    1  A    between atoms: C_2  and  C_3 
REMARK    2  A    between atoms: C_3  and  O_6 
REMARK    3  A    between atoms: C_3  and  C_4 
REMARK    4  A    between atoms: C_7  and  O_6 
REMARK    5  A    between atoms: C_9  and  C_10 
REMARK    6  A    between atoms: N_15  and  C_14 
REMARK    7  A    between atoms: N_20  and  C_19 
REMARK       I    between atoms: C_22  and  N_20 
ROOT
ATOM      1  C   LIG d   1       0.287  93.010 118.249  0.00  0.00     0.161 C 
ATOM      2  C   LIG d   1       1.434  92.646 117.524  0.00  0.00     0.016 C 
ATOM      3  C   LIG d   1       2.665  92.309 118.132  0.00  0.00     0.038 C 
ATOM      4  C   LIG d   1       2.791  92.166 119.522  0.00  0.00     0.028 C 
ATOM      5  C   LIG d   1       1.798  93.014 120.310  0.00  0.00    -0.047 C 
ATOM      6  C   LIG d   1       0.374  92.752 119.768  0.00  0.00     0.091 C 
ENDROOT
BRANCH   1   7
ATOM      7  O   LIG d   1      -0.870  92.354 117.695  0.00  0.00    -0.368 OA
BRANCH   7   8
ATOM      8  C   LIG d   1      -1.222  91.078 118.283  0.00  0.00     0.119 C 
BRANCH   8   9
ATOM      9  C   LIG d   1      -0.943  89.989 117.230  0.00  0.00     0.028 C 
ATOM     10  C   LIG d   1       0.360  89.221 117.511  0.00  0.00     0.006 C 
ENDBRANCH   8   9
BRANCH   8  11
ATOM     11  C   LIG d   1      -2.725  90.991 118.567  0.00  0.00     0.028 C 
ATOM     12  C   LIG d   1      -3.464  92.305 118.270  0.00  0.00     0.006 C 
ENDBRANCH   8  11
ENDBRANCH   7   8
ENDBRANCH   1   7
BRANCH   6  13
ATOM     13  N   LIG d   1      -0.649  93.605 120.428  0.00  0.00    -0.311 N 
ATOM     14  C   LIG d   1      -1.411  93.187 121.437  0.00  0.00     0.210 C 
ATOM     15  C   LIG d   1      -2.416  94.219 121.958  0.00  0.00     0.109 C 
ATOM     16  O   LIG d   1      -1.329  92.071 121.970  0.00  0.00    -0.276 OA
ATOM     17  H   LIG d   1      -0.761  94.537 120.078  0.00  0.00     0.149 HD
ENDBRANCH   6  13
BRANCH   5  18
ATOM     18  N   LIG d   1       1.947  92.665 121.735  0.00  0.00     0.381 N 
ATOM     19  H   LIG d   1       2.866  92.906 122.049  0.00  0.00    -0.090 HD
ATOM     20  H   LIG d   1       1.829  91.672 121.841  0.00  0.00    -0.090 HD
ATOM     21  H   LIG d   1       1.265  93.147 122.278  0.00  0.00    -0.090 HD
ENDBRANCH   5  18
BRANCH   3  22
ATOM     22  C   LIG d   1       3.798  92.149 117.348  0.00  0.00     0.382 C 
ATOM     23  O   LIG d   1       3.938  91.115 116.652  0.00  0.00    -0.241 OA
ATOM     24  O   LIG d   1       4.702  93.006 117.362  0.00  0.00    -0.241 OA
ENDBRANCH   3  22
TORSDOF 7
ENDMDL
