MODEL 1
REMARK VINA RESULT:      -5.2      0.000      0.000
REMARK  7 active torsions:
REMARK  status: ('A' for Active; 'I' for Inactive)
REMARK    1  A    between atoms: C_2  and  C_3 
REMARK    2  A    between atoms: C_3  and  O_6 
REMARK    3  A    between atoms: C_3  and  C_4 
REMARK    4  A    between atoms: C_7  and  O_6 
REMARK    5  A    between atoms: C_9  and  C_10 
REMARK    6  A    between atoms: N_15  and  C_14 
REMARK    7  A    between atoms: N_20  and  C_19 
REMARK       I    between atoms: C_22  and  N_20 
ROOT
ATOM      1  C   LIG d   1      -6.361  93.893 118.031  0.00  0.00     0.161 C 
ATOM      2  C   LIG d   1      -6.922  92.813 117.329  0.00  0.00     0.016 C 
ATOM      3  C   LIG d   1      -6.189  91.663 116.956  0.00  0.00     0.038 C 
ATOM      4  C   LIG d   1      -4.874  91.447 117.394  0.00  0.00     0.028 C 
ATOM      5  C   LIG d   1      -4.110  92.736 117.676  0.00  0.00    -0.047 C 
ATOM      6  C   LIG d   1      -4.957  93.626 118.614  0.00  0.00     0.091 C 
ENDROOT
BRANCH   1   7
ATOM      7  O   LIG d   1      -7.262  94.320 119.071  0.00  0.00    -0.368 OA
BRANCH   7   8
ATOM      8  C   LIG d   1      -8.036  93.277 119.713  0.00  0.00     0.119 C 
BRANCH   8   9
ATOM      9  C   LIG d   1      -9.451  93.835 119.960  0.00  0.00     0.028 C 
ATOM     10  C   LIG d   1      -9.600  95.289 119.482  0.00  0.00     0.006 C 
ENDBRANCH   8   9
BRANCH   8  11
ATOM     11  C   LIG d   1      -7.482  92.947 121.102  0.00  0.00     0.028 C 
ATOM     12  C   LIG d   1      -6.831  94.159 121.787  0.00  0.00     0.006 C 
ENDBRANCH   8  11
ENDBRANCH   7   8
ENDBRANCH   1   7
BRANCH   6  13
ATOM     13  N   LIG d   1      -4.320  94.944 118.874  0.00  0.00    -0.311 N 
ATOM     14  C   LIG d   1      -3.556  95.192 119.936  0.00  0.00     0.210 C 
ATOM     15  C   LIG d   1      -3.014  96.622 120.022  0.00  0.00     0.109 C 
ATOM     16  O   LIG d   1      -3.249  94.354 120.797  0.00  0.00    -0.276 OA
ATOM     17  H   LIG d   1      -4.491  95.672 118.208  0.00  0.00     0.149 HD
ENDBRANCH   6  13
BRANCH   5  18
ATOM     18  N   LIG d   1      -2.805  92.364 118.255  0.00  0.00     0.381 N 
ATOM     19  H   LIG d   1      -2.512  93.064 118.907  0.00  0.00    -0.090 HD
ATOM     20  H   LIG d   1      -2.125  92.315 117.518  0.00  0.00    -0.090 HD
ATOM     21  H   LIG d   1      -2.875  91.481 118.712  0.00  0.00    -0.090 HD
ENDBRANCH   5  18
BRANCH   3  22
ATOM     22  C   LIG d   1      -6.759  90.732 116.101  0.00  0.00     0.382 C 
ATOM     23  O   LIG d   1      -8.008  90.626 116.033  0.00  0.00    -0.241 OA
ATOM     24  O   LIG d   1      -6.041  89.967 115.430  0.00  0.00    -0.241 OA
ENDBRANCH   3  22
TORSDOF 7
ENDMDL
MODEL 2
REMARK VINA RESULT:      -5.0      2.207      4.448
REMARK  7 active torsions:
REMARK  status: ('A' for Active; 'I' for Inactive)
REMARK    1  A    between atoms: C_2  and  C_3 
REMARK    2  A    between atoms: C_3  and  O_6 
REMARK    3  A    between atoms: C_3  and  C_4 
REMARK    4  A    between atoms: C_7  and  O_6 
REMARK    5  A    between atoms: C_9  and  C_10 
REMARK    6  A    between atoms: N_15  and  C_14 
REMARK    7  A    between atoms: N_20  and  C_19 
REMARK       I    between atoms: C_22  and  N_20 
ROOT
ATOM      1  C   LIG d   1      -5.021  92.860 118.253  0.00  0.00     0.161 C 
ATOM      2  C   LIG d   1      -5.300  91.857 117.310  0.00  0.00     0.016 C 
ATOM      3  C   LIG d   1      -6.519  91.775 116.598  0.00  0.00     0.038 C 
ATOM      4  C   LIG d   1      -7.489  92.786 116.671  0.00  0.00     0.028 C 
ATOM      5  C   LIG d   1      -7.466  93.553 117.989  0.00  0.00    -0.047 C 
ATOM      6  C   LIG d   1      -6.022  94.033 118.264  0.00  0.00     0.091 C 
ENDROOT
BRANCH   1   7
ATOM      7  O   LIG d   1      -3.678  93.349 118.063  0.00  0.00    -0.368 OA
BRANCH   7   8
ATOM      8  C   LIG d   1      -2.623  92.358 118.131  0.00  0.00     0.119 C 
BRANCH   8   9
ATOM      9  C   LIG d   1      -2.459  91.958 119.610  0.00  0.00     0.028 C 
ATOM     10  C   LIG d   1      -1.881  90.542 119.775  0.00  0.00     0.006 C 
ENDBRANCH   8   9
BRANCH   8  11
ATOM     11  C   LIG d   1      -1.273  92.952 117.719  0.00  0.00     0.028 C 
ATOM     12  C   LIG d   1      -1.375  94.427 117.300  0.00  0.00     0.006 C 
ENDBRANCH   8  11
ENDBRANCH   7   8
ENDBRANCH   1   7
BRANCH   6  13
ATOM     13  N   LIG d   1      -5.894  94.721 119.576  0.00  0.00    -0.311 N 
ATOM     14  C   LIG d   1      -5.979  96.042 119.722  0.00  0.00     0.210 C 
ATOM     15  C   LIG d   1      -5.798  96.547 121.157  0.00  0.00     0.109 C 
ATOM     16  O   LIG d   1      -6.218  96.842 118.804  0.00  0.00    -0.276 OA
ATOM     17  H   LIG d   1      -5.730  94.146 120.378  0.00  0.00     0.149 HD
ENDBRANCH   6  13
BRANCH   5  18
ATOM     18  N   LIG d   1      -8.432  94.662 117.876  0.00  0.00     0.381 N 
ATOM     19  H   LIG d   1      -8.224  95.211 117.065  0.00  0.00    -0.090 HD
ATOM     20  H   LIG d   1      -8.348  95.251 118.685  0.00  0.00    -0.090 HD
ATOM     21  H   LIG d   1      -9.359  94.302 117.813  0.00  0.00    -0.090 HD
ENDBRANCH   5  18
BRANCH   3  22
ATOM     22  C   LIG d   1      -6.794  90.652 115.832  0.00  0.00     0.382 C 
ATOM     23  O   LIG d   1      -5.856  89.923 115.430  0.00  0.00    -0.241 OA
ATOM     24  O   LIG d   1      -7.964  90.384 115.501  0.00  0.00    -0.241 OA
ENDBRANCH   3  22
TORSDOF 7
ENDMDL
MODEL 3
REMARK VINA RESULT:      -4.8      1.676      2.176
REMARK  7 active torsions:
REMARK  status: ('A' for Active; 'I' for Inactive)
REMARK    1  A    between atoms: C_2  and  C_3 
REMARK    2  A    between atoms: C_3  and  O_6 
REMARK    3  A    between atoms: C_3  and  C_4 
REMARK    4  A    between atoms: C_7  and  O_6 
REMARK    5  A    between atoms: C_9  and  C_10 
REMARK    6  A    between atoms: N_15  and  C_14 
REMARK    7  A    between atoms: N_20  and  C_19 
REMARK       I    between atoms: C_22  and  N_20 
ROOT
ATOM      1  C   LIG d   1      -5.343  93.070 118.885  0.00  0.00     0.161 C 
ATOM      2  C   LIG d   1      -6.348  92.531 118.064  0.00  0.00     0.016 C 
ATOM      3  C   LIG d   1      -6.099  91.566 117.061  0.00  0.00     0.038 C 
ATOM      4  C   LIG d   1      -4.844  90.958 116.912  0.00  0.00     0.028 C 
ATOM      5  C   LIG d   1      -3.687  91.834 117.381  0.00  0.00    -0.047 C 
ATOM      6  C   LIG d   1      -3.987  92.337 118.812  0.00  0.00     0.091 C 
ENDROOT
BRANCH   1   7
ATOM      7  O   LIG d   1      -5.806  93.130 120.249  0.00  0.00    -0.368 OA
BRANCH   7   8
ATOM      8  C   LIG d   1      -6.097  94.453 120.764  0.00  0.00     0.119 C 
BRANCH   8   9
ATOM      9  C   LIG d   1      -7.630  94.603 120.815  0.00  0.00     0.028 C 
ATOM     10  C   LIG d   1      -8.333  93.306 121.253  0.00  0.00     0.006 C 
ENDBRANCH   8   9
BRANCH   8  11
ATOM     11  C   LIG d   1      -5.614  95.544 119.805  0.00  0.00     0.028 C 
ATOM     12  C   LIG d   1      -6.742  96.489 119.361  0.00  0.00     0.006 C 
ENDBRANCH   8  11
ENDBRANCH   7   8
ENDBRANCH   1   7
BRANCH   6  13
ATOM     13  N   LIG d   1      -2.944  93.270 119.314  0.00  0.00    -0.311 N 
ATOM     14  C   LIG d   1      -2.191  93.019 120.384  0.00  0.00     0.210 C 
ATOM     15  C   LIG d   1      -1.190  94.122 120.743  0.00  0.00     0.109 C 
ATOM     16  O   LIG d   1      -2.235  91.975 121.051  0.00  0.00    -0.276 OA
ATOM     17  H   LIG d   1      -2.820  94.128 118.814  0.00  0.00     0.149 HD
ENDBRANCH   6  13
BRANCH   5  18
ATOM     18  N   LIG d   1      -2.455  91.028 117.298  0.00  0.00     0.381 N 
ATOM     19  H   LIG d   1      -2.548  90.207 117.863  0.00  0.00    -0.090 HD
ATOM     20  H   LIG d   1      -1.687  91.570 117.652  0.00  0.00    -0.090 HD
ATOM     21  H   LIG d   1      -2.280  90.770 116.351  0.00  0.00    -0.090 HD
ENDBRANCH   5  18
BRANCH   3  22
ATOM     22  C   LIG d   1      -7.105  91.229 116.168  0.00  0.00     0.382 C 
ATOM     23  O   LIG d   1      -7.477  90.035 116.065  0.00  0.00    -0.241 OA
ATOM     24  O   LIG d   1      -7.614  92.096 115.433  0.00  0.00    -0.241 OA
ENDBRANCH   3  22
TORSDOF 7
ENDMDL
MODEL 4
REMARK VINA RESULT:      -4.7      2.266      4.703
REMARK  7 active torsions:
REMARK  status: ('A' for Active; 'I' for Inactive)
REMARK    1  A    between atoms: C_2  and  C_3 
REMARK    2  A    between atoms: C_3  and  O_6 
REMARK    3  A    between atoms: C_3  and  C_4 
REMARK    4  A    between atoms: C_7  and  O_6 
REMARK    5  A    between atoms: C_9  and  C_10 
REMARK    6  A    between atoms: N_15  and  C_14 
REMARK    7  A    between atoms: N_20  and  C_19 
REMARK       I    between atoms: C_22  and  N_20 
ROOT
ATOM      1  C   LIG d   1      -4.093  92.279 118.293  0.00  0.00     0.161 C 
ATOM      2  C   LIG d   1      -4.786  91.451 117.394  0.00  0.00     0.016 C 
ATOM      3  C   LIG d   1      -6.044  91.784 116.842  0.00  0.00     0.038 C 
ATOM      4  C   LIG d   1      -6.629  93.044 117.036  0.00  0.00     0.028 C 
ATOM      5  C   LIG d   1      -6.206  93.714 118.339  0.00  0.00    -0.047 C 
ATOM      6  C   LIG d   1      -4.663  93.706 118.429  0.00  0.00     0.091 C 
ENDROOT
BRANCH   1   7
ATOM      7  O   LIG d   1      -2.697  92.329 117.934  0.00  0.00    -0.368 OA
BRANCH   7   8
ATOM      8  C   LIG d   1      -1.842  91.341 118.560  0.00  0.00     0.119 C 
BRANCH   8   9
ATOM      9  C   LIG d   1      -0.622  92.084 119.137  0.00  0.00     0.028 C 
ATOM     10  C   LIG d   1      -0.324  93.394 118.388  0.00  0.00     0.006 C 
ENDBRANCH   8   9
BRANCH   8  11
ATOM     11  C   LIG d   1      -1.271  90.365 117.527  0.00  0.00     0.028 C 
ATOM     12  C   LIG d   1      -1.107  88.940 118.081  0.00  0.00     0.006 C 
ENDBRANCH   8  11
ENDBRANCH   7   8
ENDBRANCH   1   7
BRANCH   6  13
ATOM     13  N   LIG d   1      -4.168  94.267 119.713  0.00  0.00    -0.311 N 
ATOM     14  C   LIG d   1      -3.280  95.257 119.786  0.00  0.00     0.210 C 
ATOM     15  C   LIG d   1      -2.889  95.672 121.208  0.00  0.00     0.109 C 
ATOM     16  O   LIG d   1      -2.803  95.853 118.809  0.00  0.00    -0.276 OA
ATOM     17  H   LIG d   1      -4.526  93.864 120.556  0.00  0.00     0.149 HD
ENDBRANCH   6  13
BRANCH   5  18
ATOM     18  N   LIG d   1      -6.779  95.073 118.348  0.00  0.00     0.381 N 
ATOM     19  H   LIG d   1      -7.686  95.061 117.927  0.00  0.00    -0.090 HD
ATOM     20  H   LIG d   1      -6.188  95.679 117.806  0.00  0.00    -0.090 HD
ATOM     21  H   LIG d   1      -6.843  95.410 119.283  0.00  0.00    -0.090 HD
ENDBRANCH   5  18
BRANCH   3  22
ATOM     22  C   LIG d   1      -6.750  90.835 116.118  0.00  0.00     0.382 C 
ATOM     23  O   LIG d   1      -6.133  89.985 115.431  0.00  0.00    -0.241 OA
ATOM     24  O   LIG d   1      -7.995  90.845 116.108  0.00  0.00    -0.241 OA
ENDBRANCH   3  22
TORSDOF 7
ENDMDL
MODEL 5
REMARK VINA RESULT:      -4.6      2.629      4.934
REMARK  7 active torsions:
REMARK  status: ('A' for Active; 'I' for Inactive)
REMARK    1  A    between atoms: C_2  and  C_3 
REMARK    2  A    between atoms: C_3  and  O_6 
REMARK    3  A    between atoms: C_3  and  C_4 
REMARK    4  A    between atoms: C_7  and  O_6 
REMARK    5  A    between atoms: C_9  and  C_10 
REMARK    6  A    between atoms: N_15  and  C_14 
REMARK    7  A    between atoms: N_20  and  C_19 
REMARK       I    between atoms: C_22  and  N_20 
ROOT
ATOM      1  C   LIG d   1      -3.715  91.510 117.906  0.00  0.00     0.161 C 
ATOM      2  C   LIG d   1      -4.756  91.117 117.048  0.00  0.00     0.016 C 
ATOM      3  C   LIG d   1      -5.915  91.894 116.825  0.00  0.00     0.038 C 
ATOM      4  C   LIG d   1      -6.045  93.196 117.332  0.00  0.00     0.028 C 
ATOM      5  C   LIG d   1      -5.247  93.429 118.611  0.00  0.00    -0.047 C 
ATOM      6  C   LIG d   1      -3.787  92.976 118.382  0.00  0.00     0.091 C 
ENDROOT
BRANCH   1   7
ATOM      7  O   LIG d   1      -2.442  91.247 117.283  0.00  0.00    -0.368 OA
BRANCH   7   8
ATOM      8  C   LIG d   1      -1.723  90.086 117.768  0.00  0.00     0.119 C 
BRANCH   8   9
ATOM      9  C   LIG d   1      -2.577  89.441 118.876  0.00  0.00     0.028 C 
ATOM     10  C   LIG d   1      -1.904  88.203 119.490  0.00  0.00     0.006 C 
ENDBRANCH   8   9
BRANCH   8  11
ATOM     11  C   LIG d   1      -0.411  90.488 118.449  0.00  0.00     0.028 C 
ATOM     12  C   LIG d   1       0.341  91.592 117.689  0.00  0.00     0.006 C 
ENDBRANCH   8  11
ENDBRANCH   7   8
ENDBRANCH   1   7
BRANCH   6  13
ATOM     13  N   LIG d   1      -2.959  93.092 119.610  0.00  0.00    -0.311 N 
ATOM     14  C   LIG d   1      -1.850  93.827 119.679  0.00  0.00     0.210 C 
ATOM     15  C   LIG d   1      -1.135  93.792 121.034  0.00  0.00     0.109 C 
ATOM     16  O   LIG d   1      -1.408  94.529 118.758  0.00  0.00    -0.276 OA
ATOM     17  H   LIG d   1      -3.261  92.579 120.415  0.00  0.00     0.149 HD
ENDBRANCH   6  13
BRANCH   5  18
ATOM     18  N   LIG d   1      -5.361  94.860 118.952  0.00  0.00     0.381 N 
ATOM     19  H   LIG d   1      -5.406  95.405 118.114  0.00  0.00    -0.090 HD
ATOM     20  H   LIG d   1      -4.544  95.138 119.466  0.00  0.00    -0.090 HD
ATOM     21  H   LIG d   1      -6.177  95.015 119.502  0.00  0.00    -0.090 HD
ENDBRANCH   5  18
BRANCH   3  22
ATOM     22  C   LIG d   1      -6.979  91.354 116.119  0.00  0.00     0.382 C 
ATOM     23  O   LIG d   1      -7.176  90.115 116.133  0.00  0.00    -0.241 OA
ATOM     24  O   LIG d   1      -7.718  92.085 115.432  0.00  0.00    -0.241 OA
ENDBRANCH   3  22
TORSDOF 7
ENDMDL
MODEL 6
REMARK VINA RESULT:      -4.6      1.997      4.057
REMARK  7 active torsions:
REMARK  status: ('A' for Active; 'I' for Inactive)
REMARK    1  A    between atoms: C_2  and  C_3 
REMARK    2  A    between atoms: C_3  and  O_6 
REMARK    3  A    between atoms: C_3  and  C_4 
REMARK    4  A    between atoms: C_7  and  O_6 
REMARK    5  A    between atoms: C_9  and  C_10 
REMARK    6  A    between atoms: N_15  and  C_14 
REMARK    7  A    between atoms: N_20  and  C_19 
REMARK       I    between atoms: C_22  and  N_20 
ROOT
ATOM      1  C   LIG d   1      -5.136  92.941 118.385  0.00  0.00     0.161 C 
ATOM      2  C   LIG d   1      -5.388  91.900 117.476  0.00  0.00     0.016 C 
ATOM      3  C   LIG d   1      -6.583  91.793 116.728  0.00  0.00     0.038 C 
ATOM      4  C   LIG d   1      -7.550  92.809 116.726  0.00  0.00     0.028 C 
ATOM      5  C   LIG d   1      -7.568  93.631 118.010  0.00  0.00    -0.047 C 
ATOM      6  C   LIG d   1      -6.132  94.118 118.314  0.00  0.00     0.091 C 
ENDROOT
BRANCH   1   7
ATOM      7  O   LIG d   1      -3.786  93.417 118.220  0.00  0.00    -0.368 OA
BRANCH   7   8
ATOM      8  C   LIG d   1      -2.918  93.285 119.373  0.00  0.00     0.119 C 
BRANCH   8   9
ATOM      9  C   LIG d   1      -1.540  92.820 118.865  0.00  0.00     0.028 C 
ATOM     10  C   LIG d   1      -1.636  91.583 117.957  0.00  0.00     0.006 C 
ENDBRANCH   8   9
BRANCH   8  11
ATOM     11  C   LIG d   1      -3.401  92.173 120.310  0.00  0.00     0.028 C 
ATOM     12  C   LIG d   1      -3.296  92.557 121.794  0.00  0.00     0.006 C 
ENDBRANCH   8  11
ENDBRANCH   7   8
ENDBRANCH   1   7
BRANCH   6  13
ATOM     13  N   LIG d   1      -6.045  94.859 119.599  0.00  0.00    -0.311 N 
ATOM     14  C   LIG d   1      -6.408  94.341 120.771  0.00  0.00     0.210 C 
ATOM     15  C   LIG d   1      -6.256  95.282 121.969  0.00  0.00     0.109 C 
ATOM     16  O   LIG d   1      -6.811  93.180 120.936  0.00  0.00    -0.276 OA
ATOM     17  H   LIG d   1      -5.699  95.798 119.561  0.00  0.00     0.149 HD
ENDBRANCH   6  13
BRANCH   5  18
ATOM     18  N   LIG d   1      -8.524  94.738 117.818  0.00  0.00     0.381 N 
ATOM     19  H   LIG d   1      -8.314  95.224 116.969  0.00  0.00    -0.090 HD
ATOM     20  H   LIG d   1      -8.432  95.384 118.583  0.00  0.00    -0.090 HD
ATOM     21  H   LIG d   1      -9.454  94.382 117.785  0.00  0.00    -0.090 HD
ENDBRANCH   5  18
BRANCH   3  22
ATOM     22  C   LIG d   1      -6.838  90.641 116.000  0.00  0.00     0.382 C 
ATOM     23  O   LIG d   1      -8.002  90.175 115.950  0.00  0.00    -0.241 OA
ATOM     24  O   LIG d   1      -5.910  90.035 115.430  0.00  0.00    -0.241 OA
ENDBRANCH   3  22
TORSDOF 7
ENDMDL
MODEL 7
REMARK VINA RESULT:      -4.6      2.282      4.754
REMARK  7 active torsions:
REMARK  status: ('A' for Active; 'I' for Inactive)
REMARK    1  A    between atoms: C_2  and  C_3 
REMARK    2  A    between atoms: C_3  and  O_6 
REMARK    3  A    between atoms: C_3  and  C_4 
REMARK    4  A    between atoms: C_7  and  O_6 
REMARK    5  A    between atoms: C_9  and  C_10 
REMARK    6  A    between atoms: N_15  and  C_14 
REMARK    7  A    between atoms: N_20  and  C_19 
REMARK       I    between atoms: C_22  and  N_20 
ROOT
ATOM      1  C   LIG d   1      -4.586  93.356 118.669  0.00  0.00     0.161 C 
ATOM      2  C   LIG d   1      -5.770  94.102 118.785  0.00  0.00     0.016 C 
ATOM      3  C   LIG d   1      -6.939  93.828 118.038  0.00  0.00     0.038 C 
ATOM      4  C   LIG d   1      -7.052  92.687 117.230  0.00  0.00     0.028 C 
ATOM      5  C   LIG d   1      -5.714  92.189 116.695  0.00  0.00    -0.047 C 
ATOM      6  C   LIG d   1      -4.726  92.040 117.874  0.00  0.00     0.091 C 
ENDROOT
BRANCH   1   7
ATOM      7  O   LIG d   1      -4.043  93.095 119.978  0.00  0.00    -0.368 OA
BRANCH   7   8
ATOM      8  C   LIG d   1      -2.795  93.761 120.294  0.00  0.00     0.119 C 
BRANCH   8   9
ATOM      9  C   LIG d   1      -3.098  94.826 121.366  0.00  0.00     0.028 C 
ATOM     10  C   LIG d   1      -3.352  96.215 120.757  0.00  0.00     0.006 C 
ENDBRANCH   8   9
BRANCH   8  11
ATOM     11  C   LIG d   1      -2.258  94.539 119.090  0.00  0.00     0.028 C 
ATOM     12  C   LIG d   1      -0.878  94.043 118.628  0.00  0.00     0.006 C 
ENDBRANCH   8  11
ENDBRANCH   7   8
ENDBRANCH   1   7
BRANCH   6  13
ATOM     13  N   LIG d   1      -3.367  91.638 117.428  0.00  0.00    -0.311 N 
ATOM     14  C   LIG d   1      -2.729  90.567 117.896  0.00  0.00     0.210 C 
ATOM     15  C   LIG d   1      -1.328  90.344 117.317  0.00  0.00     0.109 C 
ATOM     16  O   LIG d   1      -3.202  89.762 118.713  0.00  0.00    -0.276 OA
ATOM     17  H   LIG d   1      -2.921  92.217 116.744  0.00  0.00     0.149 HD
ENDBRANCH   6  13
BRANCH   5  18
ATOM     18  N   LIG d   1      -5.962  90.920 115.985  0.00  0.00     0.381 N 
ATOM     19  H   LIG d   1      -5.223  90.274 116.177  0.00  0.00    -0.090 HD
ATOM     20  H   LIG d   1      -5.976  91.098 114.996  0.00  0.00    -0.090 HD
ATOM     21  H   LIG d   1      -6.834  90.533 116.272  0.00  0.00    -0.090 HD
ENDBRANCH   5  18
BRANCH   3  22
ATOM     22  C   LIG d   1      -7.998  94.723 118.066  0.00  0.00     0.382 C 
ATOM     23  O   LIG d   1      -9.178  94.301 118.001  0.00  0.00    -0.241 OA
ATOM     24  O   LIG d   1      -7.787  95.950 118.110  0.00  0.00    -0.241 OA
ENDBRANCH   3  22
TORSDOF 7
ENDMDL
MODEL 8
REMARK VINA RESULT:      -4.5      2.422      3.547
REMARK  7 active torsions:
REMARK  status: ('A' for Active; 'I' for Inactive)
REMARK    1  A    between atoms: C_2  and  C_3 
REMARK    2  A    between atoms: C_3  and  O_6 
REMARK    3  A    between atoms: C_3  and  C_4 
REMARK    4  A    between atoms: C_7  and  O_6 
REMARK    5  A    between atoms: C_9  and  C_10 
REMARK    6  A    between atoms: N_15  and  C_14 
REMARK    7  A    between atoms: N_20  and  C_19 
REMARK       I    between atoms: C_22  and  N_20 
ROOT
ATOM      1  C   LIG d   1      -4.093  92.771 117.682  0.00  0.00     0.161 C 
ATOM      2  C   LIG d   1      -3.734  91.413 117.647  0.00  0.00     0.016 C 
ATOM      3  C   LIG d   1      -3.024  90.769 118.686  0.00  0.00     0.038 C 
ATOM      4  C   LIG d   1      -2.756  91.406 119.907  0.00  0.00     0.028 C 
ATOM      5  C   LIG d   1      -2.655  92.923 119.789  0.00  0.00    -0.047 C 
ATOM      6  C   LIG d   1      -3.907  93.454 119.053  0.00  0.00     0.091 C 
ENDROOT
BRANCH   1   7
ATOM      7  O   LIG d   1      -5.451  92.929 117.224  0.00  0.00    -0.368 OA
BRANCH   7   8
ATOM      8  C   LIG d   1      -6.453  92.147 117.919  0.00  0.00     0.119 C 
BRANCH   8   9
ATOM      9  C   LIG d   1      -7.212  91.322 116.862  0.00  0.00     0.028 C 
ATOM     10  C   LIG d   1      -6.945  91.815 115.430  0.00  0.00     0.006 C 
ENDBRANCH   8   9
BRANCH   8  11
ATOM     11  C   LIG d   1      -7.510  93.047 118.567  0.00  0.00     0.028 C 
ATOM     12  C   LIG d   1      -7.447  94.498 118.064  0.00  0.00     0.006 C 
ENDBRANCH   8  11
ENDBRANCH   7   8
ENDBRANCH   1   7
BRANCH   6  13
ATOM     13  N   LIG d   1      -3.849  94.920 118.821  0.00  0.00    -0.311 N 
ATOM     14  C   LIG d   1      -4.390  95.815 119.646  0.00  0.00     0.210 C 
ATOM     15  C   LIG d   1      -4.234  97.275 119.209  0.00  0.00     0.109 C 
ATOM     16  O   LIG d   1      -4.957  95.540 120.714  0.00  0.00    -0.276 OA
ATOM     17  H   LIG d   1      -3.380  95.233 117.993  0.00  0.00     0.149 HD
ENDBRANCH   6  13
BRANCH   5  18
ATOM     18  N   LIG d   1      -2.512  93.468 121.152  0.00  0.00     0.381 N 
ATOM     19  H   LIG d   1      -1.689  93.093 121.581  0.00  0.00    -0.090 HD
ATOM     20  H   LIG d   1      -3.307  93.189 121.699  0.00  0.00    -0.090 HD
ATOM     21  H   LIG d   1      -2.455  94.462 121.118  0.00  0.00    -0.090 HD
ENDBRANCH   5  18
BRANCH   3  22
ATOM     22  C   LIG d   1      -2.540  89.484 118.493  0.00  0.00     0.382 C 
ATOM     23  O   LIG d   1      -3.025  88.527 119.144  0.00  0.00    -0.241 OA
ATOM     24  O   LIG d   1      -1.594  89.276 117.710  0.00  0.00    -0.241 OA
ENDBRANCH   3  22
TORSDOF 7
ENDMDL
MODEL 9
REMARK VINA RESULT:      -4.3      2.922      4.354
REMARK  7 active torsions:
REMARK  status: ('A' for Active; 'I' for Inactive)
REMARK    1  A    between atoms: C_2  and  C_3 
REMARK    2  A    between atoms: C_3  and  O_6 
REMARK    3  A    between atoms: C_3  and  C_4 
REMARK    4  A    between atoms: C_7  and  O_6 
REMARK    5  A    between atoms: C_9  and  C_10 
REMARK    6  A    between atoms: N_15  and  C_14 
REMARK    7  A    between atoms: N_20  and  C_19 
REMARK       I    between atoms: C_22  and  N_20 
ROOT
ATOM      1  C   LIG d   1      -3.515  92.511 117.676  0.00  0.00     0.161 C 
ATOM      2  C   LIG d   1      -2.631  91.469 117.350  0.00  0.00     0.016 C 
ATOM      3  C   LIG d   1      -1.316  91.375 117.860  0.00  0.00     0.038 C 
ATOM      4  C   LIG d   1      -0.844  92.243 118.857  0.00  0.00     0.028 C 
ATOM      5  C   LIG d   1      -1.524  93.608 118.843  0.00  0.00    -0.047 C 
ATOM      6  C   LIG d   1      -3.057  93.405 118.847  0.00  0.00     0.091 C 
ENDROOT
BRANCH   1   7
ATOM      7  O   LIG d   1      -4.827  91.974 117.938  0.00  0.00    -0.368 OA
BRANCH   7   8
ATOM      8  C   LIG d   1      -5.835  92.233 116.930  0.00  0.00     0.119 C 
BRANCH   8   9
ATOM      9  C   LIG d   1      -7.174  92.453 117.660  0.00  0.00     0.028 C 
ATOM     10  C   LIG d   1      -7.567  93.939 117.730  0.00  0.00     0.006 C 
ENDBRANCH   8   9
BRANCH   8  11
ATOM     11  C   LIG d   1      -6.056  91.008 116.037  0.00  0.00     0.028 C 
ATOM     12  C   LIG d   1      -7.508  90.503 116.068  0.00  0.00     0.006 C 
ENDBRANCH   8  11
ENDBRANCH   7   8
ENDBRANCH   1   7
BRANCH   6  13
ATOM     13  N   LIG d   1      -3.799  94.689 118.749  0.00  0.00    -0.311 N 
ATOM     14  C   LIG d   1      -4.614  95.139 119.701  0.00  0.00     0.210 C 
ATOM     15  C   LIG d   1      -5.296  96.475 119.391  0.00  0.00     0.109 C 
ATOM     16  O   LIG d   1      -4.813  94.573 120.787  0.00  0.00    -0.276 OA
ATOM     17  H   LIG d   1      -3.672  95.227 117.914  0.00  0.00     0.149 HD
ENDBRANCH   6  13
BRANCH   5  18
ATOM     18  N   LIG d   1      -1.038  94.360 120.015  0.00  0.00     0.381 N 
ATOM     19  H   LIG d   1      -0.424  93.784 120.556  0.00  0.00    -0.090 HD
ATOM     20  H   LIG d   1      -1.823  94.611 120.589  0.00  0.00    -0.090 HD
ATOM     21  H   LIG d   1      -0.559  95.182 119.718  0.00  0.00    -0.090 HD
ENDBRANCH   5  18
BRANCH   3  22
ATOM     22  C   LIG d   1      -0.444  90.429 117.344  0.00  0.00     0.382 C 
ATOM     23  O   LIG d   1      -0.244  89.357 117.963  0.00  0.00    -0.241 OA
ATOM     24  O   LIG d   1       0.180  90.654 116.289  0.00  0.00    -0.241 OA
ENDBRANCH   3  22
TORSDOF 7
ENDMDL
