MODEL 1
REMARK VINA RESULT:      -5.5      0.000      0.000
REMARK  7 active torsions:
REMARK  status: ('A' for Active; 'I' for Inactive)
REMARK    1  A    between atoms: C_2  and  C_3 
REMARK    2  A    between atoms: C_3  and  O_6 
REMARK    3  A    between atoms: C_3  and  C_4 
REMARK    4  A    between atoms: C_7  and  O_6 
REMARK    5  A    between atoms: C_9  and  C_10 
REMARK    6  A    between atoms: N_15  and  C_14 
REMARK    7  A    between atoms: N_20  and  C_19 
REMARK       I    between atoms: C_22  and  N_20 
ROOT
ATOM      1  C   LIG d   1      -5.814  92.050 119.117  0.00  0.00     0.161 C 
ATOM      2  C   LIG d   1      -4.820  91.333 118.430  0.00  0.00     0.016 C 
ATOM      3  C   LIG d   1      -4.959  90.899 117.091  0.00  0.00     0.038 C 
ATOM      4  C   LIG d   1      -6.047  91.287 116.295  0.00  0.00     0.028 C 
ATOM      5  C   LIG d   1      -7.309  91.585 117.098  0.00  0.00    -0.047 C 
ATOM      6  C   LIG d   1      -6.961  92.578 118.230  0.00  0.00     0.091 C 
ENDROOT
BRANCH   1   7
ATOM      7  O   LIG d   1      -5.213  93.132 119.856  0.00  0.00    -0.368 OA
BRANCH   7   8
ATOM      8  C   LIG d   1      -3.789  93.024 120.099  0.00  0.00     0.119 C 
BRANCH   8   9
ATOM      9  C   LIG d   1      -3.601  92.618 121.573  0.00  0.00     0.028 C 
ATOM     10  C   LIG d   1      -2.897  91.258 121.722  0.00  0.00     0.006 C 
ENDBRANCH   8   9
BRANCH   8  11
ATOM     11  C   LIG d   1      -3.096  94.383 119.961  0.00  0.00     0.028 C 
ATOM     12  C   LIG d   1      -1.883  94.341 119.019  0.00  0.00     0.006 C 
ENDBRANCH   8  11
ENDBRANCH   7   8
ENDBRANCH   1   7
BRANCH   6  13
ATOM     13  N   LIG d   1      -8.122  92.858 119.115  0.00  0.00    -0.311 N 
ATOM     14  C   LIG d   1      -8.680  94.061 119.233  0.00  0.00     0.210 C 
ATOM     15  C   LIG d   1      -9.854  94.136 120.215  0.00  0.00     0.109 C 
ATOM     16  O   LIG d   1      -8.336  95.066 118.594  0.00  0.00    -0.276 OA
ATOM     17  H   LIG d   1      -8.485  92.091 119.647  0.00  0.00     0.149 HD
ENDBRANCH   6  13
BRANCH   5  18
ATOM     18  N   LIG d   1      -8.320  92.108 116.160  0.00  0.00     0.381 N 
ATOM     19  H   LIG d   1      -8.263  93.106 116.123  0.00  0.00    -0.090 HD
ATOM     20  H   LIG d   1      -9.234  91.857 116.494  0.00  0.00    -0.090 HD
ATOM     21  H   LIG d   1      -8.173  91.726 115.252  0.00  0.00    -0.090 HD
ENDBRANCH   5  18
BRANCH   3  22
ATOM     22  C   LIG d   1      -4.020  90.035 116.548  0.00  0.00     0.382 C 
ATOM     23  O   LIG d   1      -4.357  89.229 115.648  0.00  0.00    -0.241 OA
ATOM     24  O   LIG d   1      -2.852  90.020 116.979  0.00  0.00    -0.241 OA
ENDBRANCH   3  22
TORSDOF 7
ENDMDL
MODEL 2
REMARK VINA RESULT:      -5.5      2.590      4.536
REMARK  7 active torsions:
REMARK  status: ('A' for Active; 'I' for Inactive)
REMARK    1  A    between atoms: C_2  and  C_3 
REMARK    2  A    between atoms: C_3  and  O_6 
REMARK    3  A    between atoms: C_3  and  C_4 
REMARK    4  A    between atoms: C_7  and  O_6 
REMARK    5  A    between atoms: C_9  and  C_10 
REMARK    6  A    between atoms: N_15  and  C_14 
REMARK    7  A    between atoms: N_20  and  C_19 
REMARK       I    between atoms: C_22  and  N_20 
ROOT
ATOM      1  C   LIG d   1      -5.887  92.128 118.484  0.00  0.00     0.161 C 
ATOM      2  C   LIG d   1      -7.013  91.783 117.717  0.00  0.00     0.016 C 
ATOM      3  C   LIG d   1      -6.959  90.914 116.603  0.00  0.00     0.038 C 
ATOM      4  C   LIG d   1      -5.794  90.207 116.270  0.00  0.00     0.028 C 
ATOM      5  C   LIG d   1      -4.513  90.909 116.707  0.00  0.00    -0.047 C 
ATOM      6  C   LIG d   1      -4.629  91.279 118.203  0.00  0.00     0.091 C 
ENDROOT
BRANCH   1   7
ATOM      7  O   LIG d   1      -6.219  92.084 119.886  0.00  0.00    -0.368 OA
BRANCH   7   8
ATOM      8  C   LIG d   1      -6.280  93.361 120.567  0.00  0.00     0.119 C 
BRANCH   8   9
ATOM      9  C   LIG d   1      -7.767  93.681 120.816  0.00  0.00     0.028 C 
ATOM     10  C   LIG d   1      -8.336  94.669 119.784  0.00  0.00     0.006 C 
ENDBRANCH   8   9
BRANCH   8  11
ATOM     11  C   LIG d   1      -5.766  94.494 119.674  0.00  0.00     0.028 C 
ATOM     12  C   LIG d   1      -4.508  95.174 120.238  0.00  0.00     0.006 C 
ENDBRANCH   8  11
ENDBRANCH   7   8
ENDBRANCH   1   7
BRANCH   6  13
ATOM     13  N   LIG d   1      -3.452  92.045 118.691  0.00  0.00    -0.311 N 
ATOM     14  C   LIG d   1      -2.686  91.645 119.704  0.00  0.00     0.210 C 
ATOM     15  C   LIG d   1      -1.536  92.593 120.058  0.00  0.00     0.109 C 
ATOM     16  O   LIG d   1      -2.830  90.580 120.322  0.00  0.00    -0.276 OA
ATOM     17  H   LIG d   1      -3.244  92.907 118.225  0.00  0.00     0.149 HD
ENDBRANCH   6  13
BRANCH   5  18
ATOM     18  N   LIG d   1      -3.387  90.001 116.422  0.00  0.00     0.381 N 
ATOM     19  H   LIG d   1      -2.681  90.106 117.122  0.00  0.00    -0.090 HD
ATOM     20  H   LIG d   1      -2.989  90.246 115.532  0.00  0.00    -0.090 HD
ATOM     21  H   LIG d   1      -3.707  89.057 116.402  0.00  0.00    -0.090 HD
ENDBRANCH   5  18
BRANCH   3  22
ATOM     22  C   LIG d   1      -8.070  90.776 115.785  0.00  0.00     0.382 C 
ATOM     23  O   LIG d   1      -8.720  91.791 115.434  0.00  0.00    -0.241 OA
ATOM     24  O   LIG d   1      -8.457  89.647 115.430  0.00  0.00    -0.241 OA
ENDBRANCH   3  22
TORSDOF 7
ENDMDL
MODEL 3
REMARK VINA RESULT:      -5.4      2.405      5.840
REMARK  7 active torsions:
REMARK  status: ('A' for Active; 'I' for Inactive)
REMARK    1  A    between atoms: C_2  and  C_3 
REMARK    2  A    between atoms: C_3  and  O_6 
REMARK    3  A    between atoms: C_3  and  C_4 
REMARK    4  A    between atoms: C_7  and  O_6 
REMARK    5  A    between atoms: C_9  and  C_10 
REMARK    6  A    between atoms: N_15  and  C_14 
REMARK    7  A    between atoms: N_20  and  C_19 
REMARK       I    between atoms: C_22  and  N_20 
ROOT
ATOM      1  C   LIG d   1      -6.408  91.853 118.983  0.00  0.00     0.161 C 
ATOM      2  C   LIG d   1      -7.568  92.623 118.793  0.00  0.00     0.016 C 
ATOM      3  C   LIG d   1      -7.603  94.028 118.948  0.00  0.00     0.038 C 
ATOM      4  C   LIG d   1      -6.437  94.781 119.156  0.00  0.00     0.028 C 
ATOM      5  C   LIG d   1      -5.329  93.999 119.854  0.00  0.00    -0.047 C 
ATOM      6  C   LIG d   1      -5.103  92.668 119.101  0.00  0.00     0.091 C 
ENDROOT
BRANCH   1   7
ATOM      7  O   LIG d   1      -6.294  90.875 117.930  0.00  0.00    -0.368 OA
BRANCH   7   8
ATOM      8  C   LIG d   1      -6.024  91.394 116.604  0.00  0.00     0.119 C 
BRANCH   8   9
ATOM      9  C   LIG d   1      -7.361  91.423 115.838  0.00  0.00     0.028 C 
ATOM     10  C   LIG d   1      -8.083  90.065 115.864  0.00  0.00     0.006 C 
ENDBRANCH   8   9
BRANCH   8  11
ATOM     11  C   LIG d   1      -5.121  90.447 115.809  0.00  0.00     0.028 C 
ATOM     12  C   LIG d   1      -3.912  89.955 116.620  0.00  0.00     0.006 C 
ENDBRANCH   8  11
ENDBRANCH   7   8
ENDBRANCH   1   7
BRANCH   6  13
ATOM     13  N   LIG d   1      -4.093  91.805 119.767  0.00  0.00    -0.311 N 
ATOM     14  C   LIG d   1      -2.794  91.835 119.471  0.00  0.00     0.210 C 
ATOM     15  C   LIG d   1      -1.929  90.848 120.261  0.00  0.00     0.109 C 
ATOM     16  O   LIG d   1      -2.273  92.607 118.653  0.00  0.00    -0.276 OA
ATOM     17  H   LIG d   1      -4.425  91.170 120.466  0.00  0.00     0.149 HD
ENDBRANCH   6  13
BRANCH   5  18
ATOM     18  N   LIG d   1      -4.129  94.858 119.883  0.00  0.00     0.381 N 
ATOM     19  H   LIG d   1      -3.314  94.295 120.019  0.00  0.00    -0.090 HD
ATOM     20  H   LIG d   1      -4.205  95.496 120.655  0.00  0.00    -0.090 HD
ATOM     21  H   LIG d   1      -4.052  95.365 119.029  0.00  0.00    -0.090 HD
ENDBRANCH   5  18
BRANCH   3  22
ATOM     22  C   LIG d   1      -8.821  94.691 118.934  0.00  0.00     0.382 C 
ATOM     23  O   LIG d   1      -9.879  94.064 119.183  0.00  0.00    -0.241 OA
ATOM     24  O   LIG d   1      -8.880  95.898 118.633  0.00  0.00    -0.241 OA
ENDBRANCH   3  22
TORSDOF 7
ENDMDL
MODEL 4
REMARK VINA RESULT:      -5.3      1.118      1.745
REMARK  7 active torsions:
REMARK  status: ('A' for Active; 'I' for Inactive)
REMARK    1  A    between atoms: C_2  and  C_3 
REMARK    2  A    between atoms: C_3  and  O_6 
REMARK    3  A    between atoms: C_3  and  C_4 
REMARK    4  A    between atoms: C_7  and  O_6 
REMARK    5  A    between atoms: C_9  and  C_10 
REMARK    6  A    between atoms: N_15  and  C_14 
REMARK    7  A    between atoms: N_20  and  C_19 
REMARK       I    between atoms: C_22  and  N_20 
ROOT
ATOM      1  C   LIG d   1      -5.739  92.202 119.695  0.00  0.00     0.161 C 
ATOM      2  C   LIG d   1      -4.685  91.522 119.064  0.00  0.00     0.016 C 
ATOM      3  C   LIG d   1      -4.738  91.076 117.723  0.00  0.00     0.038 C 
ATOM      4  C   LIG d   1      -5.798  91.416 116.870  0.00  0.00     0.028 C 
ATOM      5  C   LIG d   1      -7.110  91.668 117.605  0.00  0.00    -0.047 C 
ATOM      6  C   LIG d   1      -6.860  92.679 118.747  0.00  0.00     0.091 C 
ENDROOT
BRANCH   1   7
ATOM      7  O   LIG d   1      -5.220  93.310 120.455  0.00  0.00    -0.368 OA
BRANCH   7   8
ATOM      8  C   LIG d   1      -4.647  94.397 119.688  0.00  0.00     0.119 C 
BRANCH   8   9
ATOM      9  C   LIG d   1      -3.230  94.655 120.236  0.00  0.00     0.028 C 
ATOM     10  C   LIG d   1      -2.132  94.199 119.261  0.00  0.00     0.006 C 
ENDBRANCH   8   9
BRANCH   8  11
ATOM     11  C   LIG d   1      -5.414  95.704 119.914  0.00  0.00     0.028 C 
ATOM     12  C   LIG d   1      -4.744  96.912 119.239  0.00  0.00     0.006 C 
ENDBRANCH   8  11
ENDBRANCH   7   8
ENDBRANCH   1   7
BRANCH   6  13
ATOM     13  N   LIG d   1      -8.074  92.917 119.570  0.00  0.00    -0.311 N 
ATOM     14  C   LIG d   1      -8.878  93.967 119.406  0.00  0.00     0.210 C 
ATOM     15  C   LIG d   1     -10.063  94.032 120.374  0.00  0.00     0.109 C 
ATOM     16  O   LIG d   1      -8.739  94.833 118.529  0.00  0.00    -0.276 OA
ATOM     17  H   LIG d   1      -8.279  92.247 120.285  0.00  0.00     0.149 HD
ENDBRANCH   6  13
BRANCH   5  18
ATOM     18  N   LIG d   1      -8.093  92.146 116.614  0.00  0.00     0.381 N 
ATOM     19  H   LIG d   1      -7.929  93.113 116.415  0.00  0.00    -0.090 HD
ATOM     20  H   LIG d   1      -9.015  92.055 117.001  0.00  0.00    -0.090 HD
ATOM     21  H   LIG d   1      -8.021  91.610 115.777  0.00  0.00    -0.090 HD
ENDBRANCH   5  18
BRANCH   3  22
ATOM     22  C   LIG d   1      -3.740  90.247 117.234  0.00  0.00     0.382 C 
ATOM     23  O   LIG d   1      -2.581  90.312 117.711  0.00  0.00    -0.241 OA
ATOM     24  O   LIG d   1      -3.972  89.466 116.292  0.00  0.00    -0.241 OA
ENDBRANCH   3  22
TORSDOF 7
ENDMDL
MODEL 5
REMARK VINA RESULT:      -5.3      1.910      2.494
REMARK  7 active torsions:
REMARK  status: ('A' for Active; 'I' for Inactive)
REMARK    1  A    between atoms: C_2  and  C_3 
REMARK    2  A    between atoms: C_3  and  O_6 
REMARK    3  A    between atoms: C_3  and  C_4 
REMARK    4  A    between atoms: C_7  and  O_6 
REMARK    5  A    between atoms: C_9  and  C_10 
REMARK    6  A    between atoms: N_15  and  C_14 
REMARK    7  A    between atoms: N_20  and  C_19 
REMARK       I    between atoms: C_22  and  N_20 
ROOT
ATOM      1  C   LIG d   1      -5.417  91.950 118.973  0.00  0.00     0.161 C 
ATOM      2  C   LIG d   1      -5.536  91.059 117.893  0.00  0.00     0.016 C 
ATOM      3  C   LIG d   1      -6.587  91.117 116.949  0.00  0.00     0.038 C 
ATOM      4  C   LIG d   1      -7.513  92.170 116.933  0.00  0.00     0.028 C 
ATOM      5  C   LIG d   1      -7.729  92.807 118.302  0.00  0.00    -0.047 C 
ATOM      6  C   LIG d   1      -6.355  93.174 118.908  0.00  0.00     0.091 C 
ENDROOT
BRANCH   1   7
ATOM      7  O   LIG d   1      -4.047  92.377 119.106  0.00  0.00    -0.368 OA
BRANCH   7   8
ATOM      8  C   LIG d   1      -3.351  91.923 120.293  0.00  0.00     0.119 C 
BRANCH   8   9
ATOM      9  C   LIG d   1      -2.728  93.162 120.966  0.00  0.00     0.028 C 
ATOM     10  C   LIG d   1      -2.808  94.415 120.077  0.00  0.00     0.006 C 
ENDBRANCH   8   9
BRANCH   8  11
ATOM     11  C   LIG d   1      -2.168  91.019 119.934  0.00  0.00     0.028 C 
ATOM     12  C   LIG d   1      -1.829  91.048 118.436  0.00  0.00     0.006 C 
ENDBRANCH   8  11
ENDBRANCH   7   8
ENDBRANCH   1   7
BRANCH   6  13
ATOM     13  N   LIG d   1      -6.471  93.725 120.283  0.00  0.00    -0.311 N 
ATOM     14  C   LIG d   1      -6.509  95.030 120.549  0.00  0.00     0.210 C 
ATOM     15  C   LIG d   1      -6.611  95.384 122.036  0.00  0.00     0.109 C 
ATOM     16  O   LIG d   1      -6.501  95.927 119.692  0.00  0.00    -0.276 OA
ATOM     17  H   LIG d   1      -6.515  93.067 121.036  0.00  0.00     0.149 HD
ENDBRANCH   6  13
BRANCH   5  18
ATOM     18  N   LIG d   1      -8.610  93.975 118.116  0.00  0.00     0.381 N 
ATOM     19  H   LIG d   1      -8.985  93.972 117.189  0.00  0.00    -0.090 HD
ATOM     20  H   LIG d   1      -8.068  94.813 118.234  0.00  0.00    -0.090 HD
ATOM     21  H   LIG d   1      -9.350  93.954 118.782  0.00  0.00    -0.090 HD
ENDBRANCH   5  18
BRANCH   3  22
ATOM     22  C   LIG d   1      -6.742  90.090 116.030  0.00  0.00     0.382 C 
ATOM     23  O   LIG d   1      -7.877  89.592 115.832  0.00  0.00    -0.241 OA
ATOM     24  O   LIG d   1      -5.755  89.624 115.430  0.00  0.00    -0.241 OA
ENDBRANCH   3  22
TORSDOF 7
ENDMDL
MODEL 6
REMARK VINA RESULT:      -5.1      2.293      3.776
REMARK  7 active torsions:
REMARK  status: ('A' for Active; 'I' for Inactive)
REMARK    1  A    between atoms: C_2  and  C_3 
REMARK    2  A    between atoms: C_3  and  O_6 
REMARK    3  A    between atoms: C_3  and  C_4 
REMARK    4  A    between atoms: C_7  and  O_6 
REMARK    5  A    between atoms: C_9  and  C_10 
REMARK    6  A    between atoms: N_15  and  C_14 
REMARK    7  A    between atoms: N_20  and  C_19 
REMARK       I    between atoms: C_22  and  N_20 
ROOT
ATOM      1  C   LIG d   1      -4.599  91.431 118.478  0.00  0.00     0.161 C 
ATOM      2  C   LIG d   1      -5.341  90.940 117.391  0.00  0.00     0.016 C 
ATOM      3  C   LIG d   1      -6.665  91.343 117.106  0.00  0.00     0.038 C 
ATOM      4  C   LIG d   1      -7.289  92.386 117.806  0.00  0.00     0.028 C 
ATOM      5  C   LIG d   1      -6.766  92.559 119.228  0.00  0.00    -0.047 C 
ATOM      6  C   LIG d   1      -5.224  92.651 119.188  0.00  0.00     0.091 C 
ENDROOT
BRANCH   1   7
ATOM      7  O   LIG d   1      -3.254  91.731 118.057  0.00  0.00    -0.368 OA
BRANCH   7   8
ATOM      8  C   LIG d   1      -2.260  90.712 118.327  0.00  0.00     0.119 C 
BRANCH   8   9
ATOM      9  C   LIG d   1      -2.031  90.680 119.851  0.00  0.00     0.028 C 
ATOM     10  C   LIG d   1      -0.867  91.584 120.289  0.00  0.00     0.006 C 
ENDBRANCH   8   9
BRANCH   8  11
ATOM     11  C   LIG d   1      -0.903  91.083 117.721  0.00  0.00     0.028 C 
ATOM     12  C   LIG d   1      -0.268  89.929 116.930  0.00  0.00     0.006 C 
ENDBRANCH   8  11
ENDBRANCH   7   8
ENDBRANCH   1   7
BRANCH   6  13
ATOM     13  N   LIG d   1      -4.625  92.737 120.545  0.00  0.00    -0.311 N 
ATOM     14  C   LIG d   1      -3.885  93.765 120.957  0.00  0.00     0.210 C 
ATOM     15  C   LIG d   1      -3.348  93.644 122.386  0.00  0.00     0.109 C 
ATOM     16  O   LIG d   1      -3.650  94.781 120.285  0.00  0.00    -0.276 OA
ATOM     17  H   LIG d   1      -4.792  91.970 121.167  0.00  0.00     0.149 HD
ENDBRANCH   6  13
BRANCH   5  18
ATOM     18  N   LIG d   1      -7.403  93.764 119.794  0.00  0.00     0.381 N 
ATOM     19  H   LIG d   1      -6.803  94.554 119.668  0.00  0.00    -0.090 HD
ATOM     20  H   LIG d   1      -7.540  93.626 120.780  0.00  0.00    -0.090 HD
ATOM     21  H   LIG d   1      -8.279  93.928 119.349  0.00  0.00    -0.090 HD
ENDBRANCH   5  18
BRANCH   3  22
ATOM     22  C   LIG d   1      -7.394  90.673 116.135  0.00  0.00     0.382 C 
ATOM     23  O   LIG d   1      -8.457  91.173 115.693  0.00  0.00    -0.241 OA
ATOM     24  O   LIG d   1      -7.026  89.555 115.728  0.00  0.00    -0.241 OA
ENDBRANCH   3  22
TORSDOF 7
ENDMDL
MODEL 7
REMARK VINA RESULT:      -5.0      2.249      4.928
REMARK  7 active torsions:
REMARK  status: ('A' for Active; 'I' for Inactive)
REMARK    1  A    between atoms: C_2  and  C_3 
REMARK    2  A    between atoms: C_3  and  O_6 
REMARK    3  A    between atoms: C_3  and  C_4 
REMARK    4  A    between atoms: C_7  and  O_6 
REMARK    5  A    between atoms: C_9  and  C_10 
REMARK    6  A    between atoms: N_15  and  C_14 
REMARK    7  A    between atoms: N_20  and  C_19 
REMARK       I    between atoms: C_22  and  N_20 
ROOT
ATOM      1  C   LIG d   1      -5.623  92.943 119.778  0.00  0.00     0.161 C 
ATOM      2  C   LIG d   1      -5.941  93.795 120.849  0.00  0.00     0.016 C 
ATOM      3  C   LIG d   1      -7.138  94.543 120.921  0.00  0.00     0.038 C 
ATOM      4  C   LIG d   1      -8.175  94.374 119.991  0.00  0.00     0.028 C 
ATOM      5  C   LIG d   1      -7.691  93.903 118.623  0.00  0.00    -0.047 C 
ATOM      6  C   LIG d   1      -6.791  92.660 118.810  0.00  0.00     0.091 C 
ENDROOT
BRANCH   1   7
ATOM      7  O   LIG d   1      -5.079  91.707 120.281  0.00  0.00    -0.368 OA
BRANCH   7   8
ATOM      8  C   LIG d   1      -3.679  91.465 119.997  0.00  0.00     0.119 C 
BRANCH   8   9
ATOM      9  C   LIG d   1      -3.118  92.731 119.321  0.00  0.00     0.028 C 
ATOM     10  C   LIG d   1      -2.030  93.414 120.166  0.00  0.00     0.006 C 
ENDBRANCH   8   9
BRANCH   8  11
ATOM     11  C   LIG d   1      -3.506  90.345 118.966  0.00  0.00     0.028 C 
ATOM     12  C   LIG d   1      -2.820  90.823 117.677  0.00  0.00     0.006 C 
ENDBRANCH   8  11
ENDBRANCH   7   8
ENDBRANCH   1   7
BRANCH   6  13
ATOM     13  N   LIG d   1      -6.207  92.186 117.528  0.00  0.00    -0.311 N 
ATOM     14  C   LIG d   1      -6.757  91.231 116.781  0.00  0.00     0.210 C 
ATOM     15  C   LIG d   1      -5.982  90.879 115.507  0.00  0.00     0.109 C 
ATOM     16  O   LIG d   1      -7.831  90.664 117.035  0.00  0.00    -0.276 OA
ATOM     17  H   LIG d   1      -5.352  92.614 117.230  0.00  0.00     0.149 HD
ENDBRANCH   6  13
BRANCH   5  18
ATOM     18  N   LIG d   1      -8.883  93.635 117.797  0.00  0.00     0.381 N 
ATOM     19  H   LIG d   1      -9.707  93.698 118.361  0.00  0.00    -0.090 HD
ATOM     20  H   LIG d   1      -8.821  92.701 117.431  0.00  0.00    -0.090 HD
ATOM     21  H   LIG d   1      -8.933  94.291 117.048  0.00  0.00    -0.090 HD
ENDBRANCH   5  18
BRANCH   3  22
ATOM     22  C   LIG d   1      -7.291  95.504 121.909  0.00  0.00     0.382 C 
ATOM     23  O   LIG d   1      -8.262  95.440 122.700  0.00  0.00    -0.241 OA
ATOM     24  O   LIG d   1      -6.494  96.458 121.992  0.00  0.00    -0.241 OA
ENDBRANCH   3  22
TORSDOF 7
ENDMDL
MODEL 8
REMARK VINA RESULT:      -5.0      2.685      4.530
REMARK  7 active torsions:
REMARK  status: ('A' for Active; 'I' for Inactive)
REMARK    1  A    between atoms: C_2  and  C_3 
REMARK    2  A    between atoms: C_3  and  O_6 
REMARK    3  A    between atoms: C_3  and  C_4 
REMARK    4  A    between atoms: C_7  and  O_6 
REMARK    5  A    between atoms: C_9  and  C_10 
REMARK    6  A    between atoms: N_15  and  C_14 
REMARK    7  A    between atoms: N_20  and  C_19 
REMARK       I    between atoms: C_22  and  N_20 
ROOT
ATOM      1  C   LIG d   1      -4.195  91.793 119.387  0.00  0.00     0.161 C 
ATOM      2  C   LIG d   1      -2.905  91.814 119.943  0.00  0.00     0.016 C 
ATOM      3  C   LIG d   1      -1.783  91.211 119.330  0.00  0.00     0.038 C 
ATOM      4  C   LIG d   1      -1.846  90.673 118.036  0.00  0.00     0.028 C 
ATOM      5  C   LIG d   1      -3.237  90.181 117.651  0.00  0.00    -0.047 C 
ATOM      6  C   LIG d   1      -4.260  91.307 117.924  0.00  0.00     0.091 C 
ENDROOT
BRANCH   1   7
ATOM      7  O   LIG d   1      -4.802  93.094 119.510  0.00  0.00    -0.368 OA
BRANCH   7   8
ATOM      8  C   LIG d   1      -6.131  93.126 120.086  0.00  0.00     0.119 C 
BRANCH   8   9
ATOM      9  C   LIG d   1      -6.897  94.286 119.419  0.00  0.00     0.028 C 
ATOM     10  C   LIG d   1      -7.999  93.791 118.467  0.00  0.00     0.006 C 
ENDBRANCH   8   9
BRANCH   8  11
ATOM     11  C   LIG d   1      -6.085  93.474 121.576  0.00  0.00     0.028 C 
ATOM     12  C   LIG d   1      -6.242  92.241 122.481  0.00  0.00     0.006 C 
ENDBRANCH   8  11
ENDBRANCH   7   8
ENDBRANCH   1   7
BRANCH   6  13
ATOM     13  N   LIG d   1      -5.658  90.880 117.654  0.00  0.00    -0.311 N 
ATOM     14  C   LIG d   1      -6.235  90.974 116.458  0.00  0.00     0.210 C 
ATOM     15  C   LIG d   1      -7.690  90.496 116.402  0.00  0.00     0.109 C 
ATOM     16  O   LIG d   1      -5.671  91.379 115.430  0.00  0.00    -0.276 OA
ATOM     17  H   LIG d   1      -6.179  90.510 118.425  0.00  0.00     0.149 HD
ENDBRANCH   6  13
BRANCH   5  18
ATOM     18  N   LIG d   1      -3.189  89.773 116.235  0.00  0.00     0.381 N 
ATOM     19  H   LIG d   1      -4.034  89.295 115.991  0.00  0.00    -0.090 HD
ATOM     20  H   LIG d   1      -2.420  89.141 116.104  0.00  0.00    -0.090 HD
ATOM     21  H   LIG d   1      -3.074  90.574 115.653  0.00  0.00    -0.090 HD
ENDBRANCH   5  18
BRANCH   3  22
ATOM     22  C   LIG d   1      -0.590  91.108 120.029  0.00  0.00     0.382 C 
ATOM     23  O   LIG d   1       0.407  91.781 119.672  0.00  0.00    -0.241 OA
ATOM     24  O   LIG d   1      -0.486  90.317 120.986  0.00  0.00    -0.241 OA
ENDBRANCH   3  22
TORSDOF 7
ENDMDL
MODEL 9
REMARK VINA RESULT:      -4.7      2.525      3.973
REMARK  7 active torsions:
REMARK  status: ('A' for Active; 'I' for Inactive)
REMARK    1  A    between atoms: C_2  and  C_3 
REMARK    2  A    between atoms: C_3  and  O_6 
REMARK    3  A    between atoms: C_3  and  C_4 
REMARK    4  A    between atoms: C_7  and  O_6 
REMARK    5  A    between atoms: C_9  and  C_10 
REMARK    6  A    between atoms: N_15  and  C_14 
REMARK    7  A    between atoms: N_20  and  C_19 
REMARK       I    between atoms: C_22  and  N_20 
ROOT
ATOM      1  C   LIG d   1      -3.254  91.781 118.432  0.00  0.00     0.161 C 
ATOM      2  C   LIG d   1      -3.778  91.190 117.270  0.00  0.00     0.016 C 
ATOM      3  C   LIG d   1      -5.163  91.040 117.031  0.00  0.00     0.038 C 
ATOM      4  C   LIG d   1      -6.128  91.611 117.874  0.00  0.00     0.028 C 
ATOM      5  C   LIG d   1      -5.652  91.776 119.314  0.00  0.00    -0.047 C 
ATOM      6  C   LIG d   1      -4.291  92.509 119.312  0.00  0.00     0.091 C 
ENDROOT
BRANCH   1   7
ATOM      7  O   LIG d   1      -2.177  92.674 118.083  0.00  0.00    -0.368 OA
BRANCH   7   8
ATOM      8  C   LIG d   1      -0.865  92.315 118.580  0.00  0.00     0.119 C 
BRANCH   8   9
ATOM      9  C   LIG d   1      -0.115  93.625 118.895  0.00  0.00     0.028 C 
ATOM     10  C   LIG d   1       0.455  93.646 120.323  0.00  0.00     0.006 C 
ENDBRANCH   8   9
BRANCH   8  11
ATOM     11  C   LIG d   1      -0.030  91.620 117.500  0.00  0.00     0.028 C 
ATOM     12  C   LIG d   1       0.237  90.140 117.815  0.00  0.00     0.006 C 
ENDBRANCH   8  11
ENDBRANCH   7   8
ENDBRANCH   1   7
BRANCH   6  13
ATOM     13  N   LIG d   1      -3.714  92.637 120.675  0.00  0.00    -0.311 N 
ATOM     14  C   LIG d   1      -3.225  93.777 121.160  0.00  0.00     0.210 C 
ATOM     15  C   LIG d   1      -2.659  93.686 122.581  0.00  0.00     0.109 C 
ATOM     16  O   LIG d   1      -3.235  94.863 120.561  0.00  0.00    -0.276 OA
ATOM     17  H   LIG d   1      -3.694  91.812 121.242  0.00  0.00     0.149 HD
ENDBRANCH   6  13
BRANCH   5  18
ATOM     18  N   LIG d   1      -6.701  92.507 120.049  0.00  0.00     0.381 N 
ATOM     19  H   LIG d   1      -7.257  93.038 119.408  0.00  0.00    -0.090 HD
ATOM     20  H   LIG d   1      -6.264  93.144 120.691  0.00  0.00    -0.090 HD
ATOM     21  H   LIG d   1      -7.278  91.865 120.547  0.00  0.00    -0.090 HD
ENDBRANCH   5  18
BRANCH   3  22
ATOM     22  C   LIG d   1      -5.596  90.277 115.957  0.00  0.00     0.382 C 
ATOM     23  O   LIG d   1      -6.773  90.396 115.537  0.00  0.00    -0.241 OA
ATOM     24  O   LIG d   1      -4.839  89.439 115.431  0.00  0.00    -0.241 OA
ENDBRANCH   3  22
TORSDOF 7
ENDMDL
