MODEL 1
REMARK VINA RESULT:      -4.6      0.000      0.000
REMARK  7 active torsions:
REMARK  status: ('A' for Active; 'I' for Inactive)
REMARK    1  A    between atoms: C_2  and  C_3 
REMARK    2  A    between atoms: C_3  and  O_6 
REMARK    3  A    between atoms: C_3  and  C_4 
REMARK    4  A    between atoms: C_7  and  O_6 
REMARK    5  A    between atoms: C_9  and  C_10 
REMARK    6  A    between atoms: N_15  and  C_14 
REMARK    7  A    between atoms: N_20  and  C_19 
REMARK       I    between atoms: C_22  and  N_20 
ROOT
ATOM      1  C   LIG d   1      -5.995  93.673 118.464  0.00  0.00     0.161 C 
ATOM      2  C   LIG d   1      -6.552  92.460 118.026  0.00  0.00     0.016 C 
ATOM      3  C   LIG d   1      -5.794  91.424 117.434  0.00  0.00     0.038 C 
ATOM      4  C   LIG d   1      -4.393  91.470 117.378  0.00  0.00     0.028 C 
ATOM      5  C   LIG d   1      -3.834  92.889 117.348  0.00  0.00    -0.047 C 
ATOM      6  C   LIG d   1      -4.453  93.696 118.512  0.00  0.00     0.091 C 
ENDROOT
BRANCH   1   7
ATOM      7  O   LIG d   1      -6.542  94.026 119.750  0.00  0.00    -0.368 OA
BRANCH   7   8
ATOM      8  C   LIG d   1      -7.404  95.190 119.778  0.00  0.00     0.119 C 
BRANCH   8   9
ATOM      9  C   LIG d   1      -8.840  94.697 120.042  0.00  0.00     0.028 C 
ATOM     10  C   LIG d   1      -8.900  93.635 121.153  0.00  0.00     0.006 C 
ENDBRANCH   8   9
BRANCH   8  11
ATOM     11  C   LIG d   1      -7.457  95.878 118.411  0.00  0.00     0.028 C 
ATOM     12  C   LIG d   1      -8.874  95.919 117.819  0.00  0.00     0.006 C 
ENDBRANCH   8  11
ENDBRANCH   7   8
ENDBRANCH   1   7
BRANCH   6  13
ATOM     13  N   LIG d   1      -4.024  95.119 118.506  0.00  0.00    -0.311 N 
ATOM     14  C   LIG d   1      -3.564  95.751 119.584  0.00  0.00     0.210 C 
ATOM     15  C   LIG d   1      -3.196  97.222 119.364  0.00  0.00     0.109 C 
ATOM     16  O   LIG d   1      -3.396  95.224 120.694  0.00  0.00    -0.276 OA
ATOM     17  H   LIG d   1      -4.098  95.614 117.638  0.00  0.00     0.149 HD
ENDBRANCH   6  13
BRANCH   5  18
ATOM     18  N   LIG d   1      -2.365  92.791 117.429  0.00  0.00     0.381 N 
ATOM     19  H   LIG d   1      -2.003  92.405 116.580  0.00  0.00    -0.090 HD
ATOM     20  H   LIG d   1      -2.121  92.175 118.185  0.00  0.00    -0.090 HD
ATOM     21  H   LIG d   1      -1.971  93.693 117.586  0.00  0.00    -0.090 HD
ENDBRANCH   5  18
BRANCH   3  22
ATOM     22  C   LIG d   1      -6.441  90.343 116.854  0.00  0.00     0.382 C 
ATOM     23  O   LIG d   1      -7.664  90.160 117.063  0.00  0.00    -0.241 OA
ATOM     24  O   LIG d   1      -5.807  89.525 116.162  0.00  0.00    -0.241 OA
ENDBRANCH   3  22
TORSDOF 7
ENDMDL
MODEL 2
REMARK VINA RESULT:      -4.6      3.252      5.670
REMARK  7 active torsions:
REMARK  status: ('A' for Active; 'I' for Inactive)
REMARK    1  A    between atoms: C_2  and  C_3 
REMARK    2  A    between atoms: C_3  and  O_6 
REMARK    3  A    between atoms: C_3  and  C_4 
REMARK    4  A    between atoms: C_7  and  O_6 
REMARK    5  A    between atoms: C_9  and  C_10 
REMARK    6  A    between atoms: N_15  and  C_14 
REMARK    7  A    between atoms: N_20  and  C_19 
REMARK       I    between atoms: C_22  and  N_20 
ROOT
ATOM      1  C   LIG d   1      -3.651  90.478 117.861  0.00  0.00     0.161 C 
ATOM      2  C   LIG d   1      -4.798  90.106 117.141  0.00  0.00     0.016 C 
ATOM      3  C   LIG d   1      -5.791  91.025 116.730  0.00  0.00     0.038 C 
ATOM      4  C   LIG d   1      -5.627  92.410 116.881  0.00  0.00     0.028 C 
ATOM      5  C   LIG d   1      -4.724  92.790 118.050  0.00  0.00    -0.047 C 
ATOM      6  C   LIG d   1      -3.400  91.999 117.938  0.00  0.00     0.091 C 
ENDROOT
BRANCH   1   7
ATOM      7  O   LIG d   1      -2.495  89.807 117.321  0.00  0.00    -0.368 OA
BRANCH   7   8
ATOM      8  C   LIG d   1      -2.255  88.463 117.805  0.00  0.00     0.119 C 
BRANCH   8   9
ATOM      9  C   LIG d   1      -2.471  88.475 119.331  0.00  0.00     0.028 C 
ATOM     10  C   LIG d   1      -2.159  87.116 119.979  0.00  0.00     0.006 C 
ENDBRANCH   8   9
BRANCH   8  11
ATOM     11  C   LIG d   1      -0.792  88.053 117.606  0.00  0.00     0.028 C 
ATOM     12  C   LIG d   1       0.180  89.238 117.720  0.00  0.00     0.006 C 
ENDBRANCH   8  11
ENDBRANCH   7   8
ENDBRANCH   1   7
BRANCH   6  13
ATOM     13  N   LIG d   1      -2.493  92.248 119.089  0.00  0.00    -0.311 N 
ATOM     14  C   LIG d   1      -1.212  92.586 118.952  0.00  0.00     0.210 C 
ATOM     15  C   LIG d   1      -0.450  92.776 120.267  0.00  0.00     0.109 C 
ATOM     16  O   LIG d   1      -0.642  92.777 117.867  0.00  0.00    -0.276 OA
ATOM     17  H   LIG d   1      -2.881  92.145 120.006  0.00  0.00     0.149 HD
ENDBRANCH   6  13
BRANCH   5  18
ATOM     18  N   LIG d   1      -4.530  94.251 118.007  0.00  0.00     0.381 N 
ATOM     19  H   LIG d   1      -5.175  94.660 117.360  0.00  0.00    -0.090 HD
ATOM     20  H   LIG d   1      -3.597  94.446 117.687  0.00  0.00    -0.090 HD
ATOM     21  H   LIG d   1      -4.666  94.640 118.914  0.00  0.00    -0.090 HD
ENDBRANCH   5  18
BRANCH   3  22
ATOM     22  C   LIG d   1      -6.981  90.557 116.196  0.00  0.00     0.382 C 
ATOM     23  O   LIG d   1      -7.705  91.321 115.512  0.00  0.00    -0.241 OA
ATOM     24  O   LIG d   1      -7.363  89.394 116.426  0.00  0.00    -0.241 OA
ENDBRANCH   3  22
TORSDOF 7
ENDMDL
MODEL 3
REMARK VINA RESULT:      -4.6      2.894      5.182
REMARK  7 active torsions:
REMARK  status: ('A' for Active; 'I' for Inactive)
REMARK    1  A    between atoms: C_2  and  C_3 
REMARK    2  A    between atoms: C_3  and  O_6 
REMARK    3  A    between atoms: C_3  and  C_4 
REMARK    4  A    between atoms: C_7  and  O_6 
REMARK    5  A    between atoms: C_9  and  C_10 
REMARK    6  A    between atoms: N_15  and  C_14 
REMARK    7  A    between atoms: N_20  and  C_19 
REMARK       I    between atoms: C_22  and  N_20 
ROOT
ATOM      1  C   LIG d   1      -3.740  92.420 117.846  0.00  0.00     0.161 C 
ATOM      2  C   LIG d   1      -4.945  93.114 117.645  0.00  0.00     0.016 C 
ATOM      3  C   LIG d   1      -5.982  92.646 116.806  0.00  0.00     0.038 C 
ATOM      4  C   LIG d   1      -5.947  91.369 116.226  0.00  0.00     0.028 C 
ATOM      5  C   LIG d   1      -4.533  90.847 115.995  0.00  0.00    -0.047 C 
ATOM      6  C   LIG d   1      -3.731  90.973 117.310  0.00  0.00     0.091 C 
ENDROOT
BRANCH   1   7
ATOM      7  O   LIG d   1      -3.394  92.438 119.245  0.00  0.00    -0.368 OA
BRANCH   7   8
ATOM      8  C   LIG d   1      -2.296  93.306 119.619  0.00  0.00     0.119 C 
BRANCH   8   9
ATOM      9  C   LIG d   1      -2.901  94.571 120.257  0.00  0.00     0.028 C 
ATOM     10  C   LIG d   1      -2.781  95.803 119.345  0.00  0.00     0.006 C 
ENDBRANCH   8   9
BRANCH   8  11
ATOM     11  C   LIG d   1      -1.532  93.799 118.387  0.00  0.00     0.028 C 
ATOM     12  C   LIG d   1      -0.119  93.203 118.283  0.00  0.00     0.006 C 
ENDBRANCH   8  11
ENDBRANCH   7   8
ENDBRANCH   1   7
BRANCH   6  13
ATOM     13  N   LIG d   1      -2.311  90.562 117.150  0.00  0.00    -0.311 N 
ATOM     14  C   LIG d   1      -1.739  89.603 117.876  0.00  0.00     0.210 C 
ATOM     15  C   LIG d   1      -0.261  89.350 117.564  0.00  0.00     0.109 C 
ATOM     16  O   LIG d   1      -2.325  88.914 118.726  0.00  0.00    -0.276 OA
ATOM     17  H   LIG d   1      -1.771  91.047 116.461  0.00  0.00     0.149 HD
ENDBRANCH   6  13
BRANCH   5  18
ATOM     18  N   LIG d   1      -4.644  89.456 115.517  0.00  0.00     0.381 N 
ATOM     19  H   LIG d   1      -5.312  88.959 116.071  0.00  0.00    -0.090 HD
ATOM     20  H   LIG d   1      -3.752  89.005 115.618  0.00  0.00    -0.090 HD
ATOM     21  H   LIG d   1      -4.923  89.446 114.560  0.00  0.00    -0.090 HD
ENDBRANCH   5  18
BRANCH   3  22
ATOM     22  C   LIG d   1      -7.052  93.476 116.507  0.00  0.00     0.382 C 
ATOM     23  O   LIG d   1      -7.683  93.324 115.433  0.00  0.00    -0.241 OA
ATOM     24  O   LIG d   1      -7.367  94.403 117.277  0.00  0.00    -0.241 OA
ENDBRANCH   3  22
TORSDOF 7
ENDMDL
MODEL 4
REMARK VINA RESULT:      -4.6      2.963      5.613
REMARK  7 active torsions:
REMARK  status: ('A' for Active; 'I' for Inactive)
REMARK    1  A    between atoms: C_2  and  C_3 
REMARK    2  A    between atoms: C_3  and  O_6 
REMARK    3  A    between atoms: C_3  and  C_4 
REMARK    4  A    between atoms: C_7  and  O_6 
REMARK    5  A    between atoms: C_9  and  C_10 
REMARK    6  A    between atoms: N_15  and  C_14 
REMARK    7  A    between atoms: N_20  and  C_19 
REMARK       I    between atoms: C_22  and  N_20 
ROOT
ATOM      1  C   LIG d   1      -3.841  90.870 117.864  0.00  0.00     0.161 C 
ATOM      2  C   LIG d   1      -4.924  90.335 117.146  0.00  0.00     0.016 C 
ATOM      3  C   LIG d   1      -6.048  91.097 116.751  0.00  0.00     0.038 C 
ATOM      4  C   LIG d   1      -6.096  92.489 116.918  0.00  0.00     0.028 C 
ATOM      5  C   LIG d   1      -5.253  92.988 118.086  0.00  0.00    -0.047 C 
ATOM      6  C   LIG d   1      -3.825  92.410 117.958  0.00  0.00     0.091 C 
ENDROOT
BRANCH   1   7
ATOM      7  O   LIG d   1      -2.601  90.388 117.309  0.00  0.00    -0.368 OA
BRANCH   7   8
ATOM      8  C   LIG d   1      -1.711  89.710 118.230  0.00  0.00     0.119 C 
BRANCH   8   9
ATOM      9  C   LIG d   1      -0.273  89.908 117.713  0.00  0.00     0.028 C 
ATOM     10  C   LIG d   1       0.247  88.683 116.942  0.00  0.00     0.006 C 
ENDBRANCH   8   9
BRANCH   8  11
ATOM     11  C   LIG d   1      -1.943  88.197 118.216  0.00  0.00     0.028 C 
ATOM     12  C   LIG d   1      -2.488  87.665 119.551  0.00  0.00     0.006 C 
ENDBRANCH   8  11
ENDBRANCH   7   8
ENDBRANCH   1   7
BRANCH   6  13
ATOM     13  N   LIG d   1      -2.957  92.781 119.106  0.00  0.00    -0.311 N 
ATOM     14  C   LIG d   1      -1.760  93.348 118.968  0.00  0.00     0.210 C 
ATOM     15  C   LIG d   1      -1.023  93.631 120.280  0.00  0.00     0.109 C 
ATOM     16  O   LIG d   1      -1.253  93.674 117.884  0.00  0.00    -0.276 OA
ATOM     17  H   LIG d   1      -3.305  92.581 120.024  0.00  0.00     0.149 HD
ENDBRANCH   6  13
BRANCH   5  18
ATOM     18  N   LIG d   1      -5.284  94.463 118.060  0.00  0.00     0.381 N 
ATOM     19  H   LIG d   1      -5.901  94.776 117.337  0.00  0.00    -0.090 HD
ATOM     20  H   LIG d   1      -4.361  94.804 117.856  0.00  0.00    -0.090 HD
ATOM     21  H   LIG d   1      -5.588  94.813 118.942  0.00  0.00    -0.090 HD
ENDBRANCH   5  18
BRANCH   3  22
ATOM     22  C   LIG d   1      -7.157  90.458 116.218  0.00  0.00     0.382 C 
ATOM     23  O   LIG d   1      -7.380  89.255 116.493  0.00  0.00    -0.241 OA
ATOM     24  O   LIG d   1      -7.913  91.058 115.430  0.00  0.00    -0.241 OA
ENDBRANCH   3  22
TORSDOF 7
ENDMDL
MODEL 5
REMARK VINA RESULT:      -4.5      3.827      7.644
REMARK  7 active torsions:
REMARK  status: ('A' for Active; 'I' for Inactive)
REMARK    1  A    between atoms: C_2  and  C_3 
REMARK    2  A    between atoms: C_3  and  O_6 
REMARK    3  A    between atoms: C_3  and  C_4 
REMARK    4  A    between atoms: C_7  and  O_6 
REMARK    5  A    between atoms: C_9  and  C_10 
REMARK    6  A    between atoms: N_15  and  C_14 
REMARK    7  A    between atoms: N_20  and  C_19 
REMARK       I    between atoms: C_22  and  N_20 
ROOT
ATOM      1  C   LIG d   1      -1.054  91.696 117.699  0.00  0.00     0.161 C 
ATOM      2  C   LIG d   1      -0.271  92.699 118.294  0.00  0.00     0.016 C 
ATOM      3  C   LIG d   1      -0.791  93.944 118.717  0.00  0.00     0.038 C 
ATOM      4  C   LIG d   1      -2.168  94.213 118.711  0.00  0.00     0.028 C 
ATOM      5  C   LIG d   1      -2.934  93.426 117.653  0.00  0.00    -0.047 C 
ATOM      6  C   LIG d   1      -2.577  91.928 117.786  0.00  0.00     0.091 C 
ENDROOT
BRANCH   1   7
ATOM      7  O   LIG d   1      -0.710  90.413 118.257  0.00  0.00    -0.368 OA
BRANCH   7   8
ATOM      8  C   LIG d   1      -0.103  89.464 117.346  0.00  0.00     0.119 C 
BRANCH   8   9
ATOM      9  C   LIG d   1      -0.581  88.057 117.756  0.00  0.00     0.028 C 
ATOM     10  C   LIG d   1      -1.978  88.076 118.398  0.00  0.00     0.006 C 
ENDBRANCH   8   9
BRANCH   8  11
ATOM     11  C   LIG d   1       1.420  89.437 117.502  0.00  0.00     0.028 C 
ATOM     12  C   LIG d   1       2.156  89.969 116.262  0.00  0.00     0.006 C 
ENDBRANCH   8  11
ENDBRANCH   7   8
ENDBRANCH   1   7
BRANCH   6  13
ATOM     13  N   LIG d   1      -3.220  91.097 116.734  0.00  0.00    -0.311 N 
ATOM     14  C   LIG d   1      -4.353  90.423 116.923  0.00  0.00     0.210 C 
ATOM     15  C   LIG d   1      -4.832  89.613 115.715  0.00  0.00     0.109 C 
ATOM     16  O   LIG d   1      -5.023  90.445 117.966  0.00  0.00    -0.276 OA
ATOM     17  H   LIG d   1      -2.759  91.048 115.847  0.00  0.00     0.149 HD
ENDBRANCH   6  13
BRANCH   5  18
ATOM     18  N   LIG d   1      -4.371  93.698 117.849  0.00  0.00     0.381 N 
ATOM     19  H   LIG d   1      -4.886  93.396 117.046  0.00  0.00    -0.090 HD
ATOM     20  H   LIG d   1      -4.503  94.689 117.954  0.00  0.00    -0.090 HD
ATOM     21  H   LIG d   1      -4.700  93.224 118.662  0.00  0.00    -0.090 HD
ENDBRANCH   5  18
BRANCH   3  22
ATOM     22  C   LIG d   1       0.075  94.951 119.115  0.00  0.00     0.382 C 
ATOM     23  O   LIG d   1      -0.205  96.151 118.874  0.00  0.00    -0.241 OA
ATOM     24  O   LIG d   1       1.154  94.673 119.671  0.00  0.00    -0.241 OA
ENDBRANCH   3  22
TORSDOF 7
ENDMDL
MODEL 6
REMARK VINA RESULT:      -4.3      3.787      7.184
REMARK  7 active torsions:
REMARK  status: ('A' for Active; 'I' for Inactive)
REMARK    1  A    between atoms: C_2  and  C_3 
REMARK    2  A    between atoms: C_3  and  O_6 
REMARK    3  A    between atoms: C_3  and  C_4 
REMARK    4  A    between atoms: C_7  and  O_6 
REMARK    5  A    between atoms: C_9  and  C_10 
REMARK    6  A    between atoms: N_15  and  C_14 
REMARK    7  A    between atoms: N_20  and  C_19 
REMARK       I    between atoms: C_22  and  N_20 
ROOT
ATOM      1  C   LIG d   1      -1.137  91.590 117.579  0.00  0.00     0.161 C 
ATOM      2  C   LIG d   1      -0.324  92.565 118.180  0.00  0.00     0.016 C 
ATOM      3  C   LIG d   1      -0.811  93.814 118.630  0.00  0.00     0.038 C 
ATOM      4  C   LIG d   1      -2.181  94.113 118.648  0.00  0.00     0.028 C 
ATOM      5  C   LIG d   1      -2.979  93.360 117.588  0.00  0.00    -0.047 C 
ATOM      6  C   LIG d   1      -2.653  91.853 117.691  0.00  0.00     0.091 C 
ENDROOT
BRANCH   1   7
ATOM      7  O   LIG d   1      -0.813  90.289 118.110  0.00  0.00    -0.368 OA
BRANCH   7   8
ATOM      8  C   LIG d   1      -1.623  89.836 119.223  0.00  0.00     0.119 C 
BRANCH   8   9
ATOM      9  C   LIG d   1      -0.705  89.749 120.458  0.00  0.00     0.028 C 
ATOM     10  C   LIG d   1      -0.983  90.867 121.476  0.00  0.00     0.006 C 
ENDBRANCH   8   9
BRANCH   8  11
ATOM     11  C   LIG d   1      -2.134  88.411 118.996  0.00  0.00     0.028 C 
ATOM     12  C   LIG d   1      -1.036  87.349 119.165  0.00  0.00     0.006 C 
ENDBRANCH   8  11
ENDBRANCH   7   8
ENDBRANCH   1   7
BRANCH   6  13
ATOM     13  N   LIG d   1      -3.327  91.054 116.634  0.00  0.00    -0.311 N 
ATOM     14  C   LIG d   1      -4.473  90.402 116.827  0.00  0.00     0.210 C 
ATOM     15  C   LIG d   1      -4.985  89.623 115.612  0.00  0.00     0.109 C 
ATOM     16  O   LIG d   1      -5.129  90.421 117.879  0.00  0.00    -0.276 OA
ATOM     17  H   LIG d   1      -2.879  91.009 115.740  0.00  0.00     0.149 HD
ENDBRANCH   6  13
BRANCH   5  18
ATOM     18  N   LIG d   1      -4.406  93.659 117.808  0.00  0.00     0.381 N 
ATOM     19  H   LIG d   1      -4.836  92.909 118.311  0.00  0.00    -0.090 HD
ATOM     20  H   LIG d   1      -4.863  93.743 116.917  0.00  0.00    -0.090 HD
ATOM     21  H   LIG d   1      -4.502  94.509 118.319  0.00  0.00    -0.090 HD
ENDBRANCH   5  18
BRANCH   3  22
ATOM     22  C   LIG d   1       0.082  94.795 119.033  0.00  0.00     0.382 C 
ATOM     23  O   LIG d   1      -0.201  96.006 118.869  0.00  0.00    -0.241 OA
ATOM     24  O   LIG d   1       1.187  94.484 119.518  0.00  0.00    -0.241 OA
ENDBRANCH   3  22
TORSDOF 7
ENDMDL
MODEL 7
REMARK VINA RESULT:      -4.2      3.028      5.009
REMARK  7 active torsions:
REMARK  status: ('A' for Active; 'I' for Inactive)
REMARK    1  A    between atoms: C_2  and  C_3 
REMARK    2  A    between atoms: C_3  and  O_6 
REMARK    3  A    between atoms: C_3  and  C_4 
REMARK    4  A    between atoms: C_7  and  O_6 
REMARK    5  A    between atoms: C_9  and  C_10 
REMARK    6  A    between atoms: N_15  and  C_14 
REMARK    7  A    between atoms: N_20  and  C_19 
REMARK       I    between atoms: C_22  and  N_20 
ROOT
ATOM      1  C   LIG d   1      -3.617  92.626 117.797  0.00  0.00     0.161 C 
ATOM      2  C   LIG d   1      -4.856  93.249 117.575  0.00  0.00     0.016 C 
ATOM      3  C   LIG d   1      -5.902  92.658 116.829  0.00  0.00     0.038 C 
ATOM      4  C   LIG d   1      -5.833  91.331 116.379  0.00  0.00     0.028 C 
ATOM      5  C   LIG d   1      -4.407  90.844 116.145  0.00  0.00    -0.047 C 
ATOM      6  C   LIG d   1      -3.564  91.134 117.408  0.00  0.00     0.091 C 
ENDROOT
BRANCH   1   7
ATOM      7  O   LIG d   1      -3.222  92.800 119.172  0.00  0.00    -0.368 OA
BRANCH   7   8
ATOM      8  C   LIG d   1      -3.851  91.916 120.132  0.00  0.00     0.119 C 
BRANCH   8   9
ATOM      9  C   LIG d   1      -4.788  92.772 121.006  0.00  0.00     0.028 C 
ATOM     10  C   LIG d   1      -5.480  91.950 122.106  0.00  0.00     0.006 C 
ENDBRANCH   8   9
BRANCH   8  11
ATOM     11  C   LIG d   1      -2.824  91.322 121.100  0.00  0.00     0.028 C 
ATOM     12  C   LIG d   1      -2.816  89.785 121.093  0.00  0.00     0.006 C 
ENDBRANCH   8  11
ENDBRANCH   7   8
ENDBRANCH   1   7
BRANCH   6  13
ATOM     13  N   LIG d   1      -2.135  90.765 117.233  0.00  0.00    -0.311 N 
ATOM     14  C   LIG d   1      -1.642  89.570 117.554  0.00  0.00     0.210 C 
ATOM     15  C   LIG d   1      -0.138  89.405 117.313  0.00  0.00     0.109 C 
ATOM     16  O   LIG d   1      -2.313  88.621 117.986  0.00  0.00    -0.276 OA
ATOM     17  H   LIG d   1      -1.526  91.466 116.859  0.00  0.00     0.149 HD
ENDBRANCH   6  13
BRANCH   5  18
ATOM     18  N   LIG d   1      -4.475  89.408 115.812  0.00  0.00     0.381 N 
ATOM     19  H   LIG d   1      -5.165  88.961 116.382  0.00  0.00    -0.090 HD
ATOM     20  H   LIG d   1      -3.584  88.987 116.007  0.00  0.00    -0.090 HD
ATOM     21  H   LIG d   1      -4.703  89.292 114.849  0.00  0.00    -0.090 HD
ENDBRANCH   5  18
BRANCH   3  22
ATOM     22  C   LIG d   1      -7.017  93.411 116.492  0.00  0.00     0.382 C 
ATOM     23  O   LIG d   1      -7.640  93.168 115.431  0.00  0.00    -0.241 OA
ATOM     24  O   LIG d   1      -7.381  94.358 117.214  0.00  0.00    -0.241 OA
ENDBRANCH   3  22
TORSDOF 7
ENDMDL
MODEL 8
REMARK VINA RESULT:      -4.1      2.369      4.337
REMARK  7 active torsions:
REMARK  status: ('A' for Active; 'I' for Inactive)
REMARK    1  A    between atoms: C_2  and  C_3 
REMARK    2  A    between atoms: C_3  and  O_6 
REMARK    3  A    between atoms: C_3  and  C_4 
REMARK    4  A    between atoms: C_7  and  O_6 
REMARK    5  A    between atoms: C_9  and  C_10 
REMARK    6  A    between atoms: N_15  and  C_14 
REMARK    7  A    between atoms: N_20  and  C_19 
REMARK       I    between atoms: C_22  and  N_20 
ROOT
ATOM      1  C   LIG d   1      -5.330  91.661 119.113  0.00  0.00     0.161 C 
ATOM      2  C   LIG d   1      -5.727  90.889 118.008  0.00  0.00     0.016 C 
ATOM      3  C   LIG d   1      -6.345  91.435 116.860  0.00  0.00     0.038 C 
ATOM      4  C   LIG d   1      -6.473  92.819 116.674  0.00  0.00     0.028 C 
ATOM      5  C   LIG d   1      -6.546  93.602 117.980  0.00  0.00    -0.047 C 
ATOM      6  C   LIG d   1      -5.360  93.186 118.881  0.00  0.00     0.091 C 
ENDROOT
BRANCH   1   7
ATOM      7  O   LIG d   1      -4.022  91.247 119.554  0.00  0.00    -0.368 OA
BRANCH   7   8
ATOM      8  C   LIG d   1      -3.101  90.831 118.515  0.00  0.00     0.119 C 
BRANCH   8   9
ATOM      9  C   LIG d   1      -2.494  89.482 118.947  0.00  0.00     0.028 C 
ATOM     10  C   LIG d   1      -2.851  89.116 120.397  0.00  0.00     0.006 C 
ENDBRANCH   8   9
BRANCH   8  11
ATOM     11  C   LIG d   1      -1.915  91.793 118.403  0.00  0.00     0.028 C 
ATOM     12  C   LIG d   1      -1.719  92.646 119.667  0.00  0.00     0.006 C 
ENDBRANCH   8  11
ENDBRANCH   7   8
ENDBRANCH   1   7
BRANCH   6  13
ATOM     13  N   LIG d   1      -5.403  93.843 120.213  0.00  0.00    -0.311 N 
ATOM     14  C   LIG d   1      -4.737  94.959 120.502  0.00  0.00     0.210 C 
ATOM     15  C   LIG d   1      -4.903  95.458 121.941  0.00  0.00     0.109 C 
ATOM     16  O   LIG d   1      -4.049  95.602 119.694  0.00  0.00    -0.276 OA
ATOM     17  H   LIG d   1      -5.962  93.405 120.920  0.00  0.00     0.149 HD
ENDBRANCH   6  13
BRANCH   5  18
ATOM     18  N   LIG d   1      -6.538  95.037 117.641  0.00  0.00     0.381 N 
ATOM     19  H   LIG d   1      -5.595  95.370 117.595  0.00  0.00    -0.090 HD
ATOM     20  H   LIG d   1      -7.016  95.545 118.364  0.00  0.00    -0.090 HD
ATOM     21  H   LIG d   1      -6.993  95.184 116.767  0.00  0.00    -0.090 HD
ENDBRANCH   5  18
BRANCH   3  22
ATOM     22  C   LIG d   1      -6.880  90.589 115.900  0.00  0.00     0.382 C 
ATOM     23  O   LIG d   1      -6.203  89.626 115.466  0.00  0.00    -0.241 OA
ATOM     24  O   LIG d   1      -8.014  90.803 115.431  0.00  0.00    -0.241 OA
ENDBRANCH   3  22
TORSDOF 7
ENDMDL
MODEL 9
REMARK VINA RESULT:      -3.8      5.289      7.840
REMARK  7 active torsions:
REMARK  status: ('A' for Active; 'I' for Inactive)
REMARK    1  A    between atoms: C_2  and  C_3 
REMARK    2  A    between atoms: C_3  and  O_6 
REMARK    3  A    between atoms: C_3  and  C_4 
REMARK    4  A    between atoms: C_7  and  O_6 
REMARK    5  A    between atoms: C_9  and  C_10 
REMARK    6  A    between atoms: N_15  and  C_14 
REMARK    7  A    between atoms: N_20  and  C_19 
REMARK       I    between atoms: C_22  and  N_20 
ROOT
ATOM      1  C   LIG d   1       0.598  91.585 119.059  0.00  0.00     0.161 C 
ATOM      2  C   LIG d   1       1.742  92.156 118.477  0.00  0.00     0.016 C 
ATOM      3  C   LIG d   1       2.394  91.613 117.347  0.00  0.00     0.038 C 
ATOM      4  C   LIG d   1       1.854  90.538 116.624  0.00  0.00     0.028 C 
ATOM      5  C   LIG d   1       0.977  89.620 117.469  0.00  0.00    -0.047 C 
ATOM      6  C   LIG d   1      -0.070  90.476 118.218  0.00  0.00     0.091 C 
ENDROOT
BRANCH   1   7
ATOM      7  O   LIG d   1      -0.357  92.617 119.375  0.00  0.00    -0.368 OA
BRANCH   7   8
ATOM      8  C   LIG d   1      -0.467  93.699 118.417  0.00  0.00     0.119 C 
BRANCH   8   9
ATOM      9  C   LIG d   1      -0.578  95.013 119.213  0.00  0.00     0.028 C 
ATOM     10  C   LIG d   1       0.693  95.317 120.024  0.00  0.00     0.006 C 
ENDBRANCH   8   9
BRANCH   8  11
ATOM     11  C   LIG d   1      -1.767  93.601 117.613  0.00  0.00     0.028 C 
ATOM     12  C   LIG d   1      -2.888  92.880 118.378  0.00  0.00     0.006 C 
ENDBRANCH   8  11
ENDBRANCH   7   8
ENDBRANCH   1   7
BRANCH   6  13
ATOM     13  N   LIG d   1      -0.915  89.666 119.133  0.00  0.00    -0.311 N 
ATOM     14  C   LIG d   1      -2.092  89.150 118.780  0.00  0.00     0.210 C 
ATOM     15  C   LIG d   1      -2.809  88.364 119.882  0.00  0.00     0.109 C 
ATOM     16  O   LIG d   1      -2.594  89.242 117.650  0.00  0.00    -0.276 OA
ATOM     17  H   LIG d   1      -0.569  89.515 120.060  0.00  0.00     0.149 HD
ENDBRANCH   6  13
BRANCH   5  18
ATOM     18  N   LIG d   1       0.371  88.626 116.564  0.00  0.00     0.381 N 
ATOM     19  H   LIG d   1       0.705  87.711 116.792  0.00  0.00    -0.090 HD
ATOM     20  H   LIG d   1       0.645  88.836 115.620  0.00  0.00    -0.090 HD
ATOM     21  H   LIG d   1      -0.622  88.654 116.643  0.00  0.00    -0.090 HD
ENDBRANCH   5  18
BRANCH   3  22
ATOM     22  C   LIG d   1       3.622  92.121 116.951  0.00  0.00     0.382 C 
ATOM     23  O   LIG d   1       4.437  91.388 116.341  0.00  0.00    -0.241 OA
ATOM     24  O   LIG d   1       3.943  93.290 117.237  0.00  0.00    -0.241 OA
ENDBRANCH   3  22
TORSDOF 7
ENDMDL
