MODEL 1
REMARK VINA RESULT:      -5.1      0.000      0.000
REMARK  7 active torsions:
REMARK  status: ('A' for Active; 'I' for Inactive)
REMARK    1  A    between atoms: C_2  and  C_3 
REMARK    2  A    between atoms: C_3  and  O_6 
REMARK    3  A    between atoms: C_3  and  C_4 
REMARK    4  A    between atoms: C_7  and  O_6 
REMARK    5  A    between atoms: C_9  and  C_10 
REMARK    6  A    between atoms: N_15  and  C_14 
REMARK    7  A    between atoms: N_20  and  C_19 
REMARK       I    between atoms: C_22  and  N_20 
ROOT
ATOM      1  C   LIG d   1      -3.888  91.987 118.268  0.00  0.00     0.161 C 
ATOM      2  C   LIG d   1      -4.613  91.090 117.465  0.00  0.00     0.016 C 
ATOM      3  C   LIG d   1      -5.888  91.383 116.928  0.00  0.00     0.038 C 
ATOM      4  C   LIG d   1      -6.462  92.658 117.034  0.00  0.00     0.028 C 
ATOM      5  C   LIG d   1      -5.995  93.433 118.262  0.00  0.00    -0.047 C 
ATOM      6  C   LIG d   1      -4.450  93.423 118.303  0.00  0.00     0.091 C 
ENDROOT
BRANCH   1   7
ATOM      7  O   LIG d   1      -2.505  91.999 117.861  0.00  0.00    -0.368 OA
BRANCH   7   8
ATOM      8  C   LIG d   1      -1.642  91.033 118.510  0.00  0.00     0.119 C 
BRANCH   8   9
ATOM      9  C   LIG d   1      -1.132  91.672 119.816  0.00  0.00     0.028 C 
ATOM     10  C   LIG d   1      -0.038  92.725 119.567  0.00  0.00     0.006 C 
ENDBRANCH   8   9
BRANCH   8  11
ATOM     11  C   LIG d   1      -0.387  90.759 117.676  0.00  0.00     0.028 C 
ATOM     12  C   LIG d   1       0.048  89.285 117.721  0.00  0.00     0.006 C 
ENDBRANCH   8  11
ENDBRANCH   7   8
ENDBRANCH   1   7
BRANCH   6  13
ATOM     13  N   LIG d   1      -3.911  94.088 119.518  0.00  0.00    -0.311 N 
ATOM     14  C   LIG d   1      -2.954  95.014 119.484  0.00  0.00     0.210 C 
ATOM     15  C   LIG d   1      -2.530  95.556 120.853  0.00  0.00     0.109 C 
ATOM     16  O   LIG d   1      -2.439  95.461 118.448  0.00  0.00    -0.276 OA
ATOM     17  H   LIG d   1      -4.294  93.807 120.399  0.00  0.00     0.149 HD
ENDBRANCH   6  13
BRANCH   5  18
ATOM     18  N   LIG d   1      -6.563  94.791 118.175  0.00  0.00     0.381 N 
ATOM     19  H   LIG d   1      -7.441  94.761 117.696  0.00  0.00    -0.090 HD
ATOM     20  H   LIG d   1      -5.936  95.372 117.647  0.00  0.00    -0.090 HD
ATOM     21  H   LIG d   1      -6.687  95.168 119.089  0.00  0.00    -0.090 HD
ENDBRANCH   5  18
BRANCH   3  22
ATOM     22  C   LIG d   1      -6.619  90.380 116.309  0.00  0.00     0.382 C 
ATOM     23  O   LIG d   1      -7.847  90.267 116.541  0.00  0.00    -0.241 OA
ATOM     24  O   LIG d   1      -6.058  89.561 115.558  0.00  0.00    -0.241 OA
ENDBRANCH   3  22
TORSDOF 7
ENDMDL
MODEL 2
REMARK VINA RESULT:      -5.1      2.423      5.190
REMARK  7 active torsions:
REMARK  status: ('A' for Active; 'I' for Inactive)
REMARK    1  A    between atoms: C_2  and  C_3 
REMARK    2  A    between atoms: C_3  and  O_6 
REMARK    3  A    between atoms: C_3  and  C_4 
REMARK    4  A    between atoms: C_7  and  O_6 
REMARK    5  A    between atoms: C_9  and  C_10 
REMARK    6  A    between atoms: N_15  and  C_14 
REMARK    7  A    between atoms: N_20  and  C_19 
REMARK       I    between atoms: C_22  and  N_20 
ROOT
ATOM      1  C   LIG d   1      -6.336  93.694 118.109  0.00  0.00     0.161 C 
ATOM      2  C   LIG d   1      -6.875  92.512 117.576  0.00  0.00     0.016 C 
ATOM      3  C   LIG d   1      -6.088  91.406 117.182  0.00  0.00     0.038 C 
ATOM      4  C   LIG d   1      -4.709  91.349 117.438  0.00  0.00     0.028 C 
ATOM      5  C   LIG d   1      -4.050  92.721 117.513  0.00  0.00    -0.047 C 
ATOM      6  C   LIG d   1      -4.846  93.607 118.499  0.00  0.00     0.091 C 
ENDROOT
BRANCH   1   7
ATOM      7  O   LIG d   1      -7.124  94.126 119.236  0.00  0.00    -0.368 OA
BRANCH   7   8
ATOM      8  C   LIG d   1      -7.657  95.471 119.164  0.00  0.00     0.119 C 
BRANCH   8   9
ATOM      9  C   LIG d   1      -8.890  95.531 120.087  0.00  0.00     0.028 C 
ATOM     10  C   LIG d   1      -9.705  94.227 120.064  0.00  0.00     0.006 C 
ENDBRANCH   8   9
BRANCH   8  11
ATOM     11  C   LIG d   1      -8.185  95.787 117.762  0.00  0.00     0.028 C 
ATOM     12  C   LIG d   1      -8.107  97.283 117.419  0.00  0.00     0.006 C 
ENDBRANCH   8  11
ENDBRANCH   7   8
ENDBRANCH   1   7
BRANCH   6  13
ATOM     13  N   LIG d   1      -4.317  94.995 118.568  0.00  0.00    -0.311 N 
ATOM     14  C   LIG d   1      -3.418  95.393 119.466  0.00  0.00     0.210 C 
ATOM     15  C   LIG d   1      -3.023  96.870 119.375  0.00  0.00     0.109 C 
ATOM     16  O   LIG d   1      -2.887  94.655 120.310  0.00  0.00    -0.276 OA
ATOM     17  H   LIG d   1      -4.671  95.651 117.900  0.00  0.00     0.149 HD
ENDBRANCH   6  13
BRANCH   5  18
ATOM     18  N   LIG d   1      -2.647  92.520 117.921  0.00  0.00     0.381 N 
ATOM     19  H   LIG d   1      -2.044  92.638 117.131  0.00  0.00    -0.090 HD
ATOM     20  H   LIG d   1      -2.539  91.581 118.262  0.00  0.00    -0.090 HD
ATOM     21  H   LIG d   1      -2.402  93.171 118.634  0.00  0.00    -0.090 HD
ENDBRANCH   5  18
BRANCH   3  22
ATOM     22  C   LIG d   1      -6.673  90.357 116.489  0.00  0.00     0.382 C 
ATOM     23  O   LIG d   1      -5.979  89.652 115.717  0.00  0.00    -0.241 OA
ATOM     24  O   LIG d   1      -7.894  90.136 116.591  0.00  0.00    -0.241 OA
ENDBRANCH   3  22
TORSDOF 7
ENDMDL
MODEL 3
REMARK VINA RESULT:      -5.0      2.563      4.143
REMARK  7 active torsions:
REMARK  status: ('A' for Active; 'I' for Inactive)
REMARK    1  A    between atoms: C_2  and  C_3 
REMARK    2  A    between atoms: C_3  and  O_6 
REMARK    3  A    between atoms: C_3  and  C_4 
REMARK    4  A    between atoms: C_7  and  O_6 
REMARK    5  A    between atoms: C_9  and  C_10 
REMARK    6  A    between atoms: N_15  and  C_14 
REMARK    7  A    between atoms: N_20  and  C_19 
REMARK       I    between atoms: C_22  and  N_20 
ROOT
ATOM      1  C   LIG d   1      -4.497  92.502 118.325  0.00  0.00     0.161 C 
ATOM      2  C   LIG d   1      -5.631  93.267 118.005  0.00  0.00     0.016 C 
ATOM      3  C   LIG d   1      -6.555  92.906 116.998  0.00  0.00     0.038 C 
ATOM      4  C   LIG d   1      -6.488  91.668 116.340  0.00  0.00     0.028 C 
ATOM      5  C   LIG d   1      -5.078  91.093 116.274  0.00  0.00    -0.047 C 
ATOM      6  C   LIG d   1      -4.468  91.094 117.695  0.00  0.00     0.091 C 
ENDROOT
BRANCH   1   7
ATOM      7  O   LIG d   1      -4.355  92.413 119.757  0.00  0.00    -0.368 OA
BRANCH   7   8
ATOM      8  C   LIG d   1      -3.087  92.856 120.300  0.00  0.00     0.119 C 
BRANCH   8   9
ATOM      9  C   LIG d   1      -3.389  93.692 121.558  0.00  0.00     0.028 C 
ATOM     10  C   LIG d   1      -4.627  94.589 121.384  0.00  0.00     0.006 C 
ENDBRANCH   8   9
BRANCH   8  11
ATOM     11  C   LIG d   1      -2.372  93.811 119.340  0.00  0.00     0.028 C 
ATOM     12  C   LIG d   1      -0.936  93.369 119.019  0.00  0.00     0.006 C 
ENDBRANCH   8  11
ENDBRANCH   7   8
ENDBRANCH   1   7
BRANCH   6  13
ATOM     13  N   LIG d   1      -3.058  90.625 117.707  0.00  0.00    -0.311 N 
ATOM     14  C   LIG d   1      -2.627  89.618 118.465  0.00  0.00     0.210 C 
ATOM     15  C   LIG d   1      -1.132  89.309 118.340  0.00  0.00     0.109 C 
ATOM     16  O   LIG d   1      -3.348  88.930 119.204  0.00  0.00    -0.276 OA
ATOM     17  H   LIG d   1      -2.412  91.107 117.113  0.00  0.00     0.149 HD
ENDBRANCH   6  13
BRANCH   5  18
ATOM     18  N   LIG d   1      -5.174  89.743 115.687  0.00  0.00     0.381 N 
ATOM     19  H   LIG d   1      -5.215  89.059 116.416  0.00  0.00    -0.090 HD
ATOM     20  H   LIG d   1      -4.352  89.568 115.137  0.00  0.00    -0.090 HD
ATOM     21  H   LIG d   1      -5.987  89.677 115.115  0.00  0.00    -0.090 HD
ENDBRANCH   5  18
BRANCH   3  22
ATOM     22  C   LIG d   1      -7.537  93.805 116.611  0.00  0.00     0.382 C 
ATOM     23  O   LIG d   1      -8.065  94.561 117.462  0.00  0.00    -0.241 OA
ATOM     24  O   LIG d   1      -7.934  93.838 115.431  0.00  0.00    -0.241 OA
ENDBRANCH   3  22
TORSDOF 7
ENDMDL
MODEL 4
REMARK VINA RESULT:      -5.0      1.368      2.058
REMARK  7 active torsions:
REMARK  status: ('A' for Active; 'I' for Inactive)
REMARK    1  A    between atoms: C_2  and  C_3 
REMARK    2  A    between atoms: C_3  and  O_6 
REMARK    3  A    between atoms: C_3  and  C_4 
REMARK    4  A    between atoms: C_7  and  O_6 
REMARK    5  A    between atoms: C_9  and  C_10 
REMARK    6  A    between atoms: N_15  and  C_14 
REMARK    7  A    between atoms: N_20  and  C_19 
REMARK       I    between atoms: C_22  and  N_20 
ROOT
ATOM      1  C   LIG d   1      -4.796  92.118 119.142  0.00  0.00     0.161 C 
ATOM      2  C   LIG d   1      -5.159  91.152 118.189  0.00  0.00     0.016 C 
ATOM      3  C   LIG d   1      -6.111  91.384 117.170  0.00  0.00     0.038 C 
ATOM      4  C   LIG d   1      -6.658  92.655 116.941  0.00  0.00     0.028 C 
ATOM      5  C   LIG d   1      -6.702  93.529 118.190  0.00  0.00    -0.047 C 
ATOM      6  C   LIG d   1      -5.300  93.545 118.841  0.00  0.00     0.091 C 
ENDROOT
BRANCH   1   7
ATOM      7  O   LIG d   1      -3.366  92.119 119.318  0.00  0.00    -0.368 OA
BRANCH   7   8
ATOM      8  C   LIG d   1      -2.576  92.302 118.116  0.00  0.00     0.119 C 
BRANCH   8   9
ATOM      9  C   LIG d   1      -1.363  91.356 118.212  0.00  0.00     0.028 C 
ATOM     10  C   LIG d   1      -1.773  89.903 118.502  0.00  0.00     0.006 C 
ENDBRANCH   8   9
BRANCH   8  11
ATOM     11  C   LIG d   1      -1.986  93.713 118.046  0.00  0.00     0.028 C 
ATOM     12  C   LIG d   1      -1.450  94.202 119.401  0.00  0.00     0.006 C 
ENDBRANCH   8  11
ENDBRANCH   7   8
ENDBRANCH   1   7
BRANCH   6  13
ATOM     13  N   LIG d   1      -5.276  94.310 120.115  0.00  0.00    -0.311 N 
ATOM     14  C   LIG d   1      -4.861  95.572 120.205  0.00  0.00     0.210 C 
ATOM     15  C   LIG d   1      -4.898  96.166 121.616  0.00  0.00     0.109 C 
ATOM     16  O   LIG d   1      -4.498  96.267 119.244  0.00  0.00    -0.276 OA
ATOM     17  H   LIG d   1      -5.584  93.832 120.939  0.00  0.00     0.149 HD
ENDBRANCH   6  13
BRANCH   5  18
ATOM     18  N   LIG d   1      -7.166  94.868 117.781  0.00  0.00     0.381 N 
ATOM     19  H   LIG d   1      -7.380  94.868 116.803  0.00  0.00    -0.090 HD
ATOM     20  H   LIG d   1      -6.427  95.531 117.942  0.00  0.00    -0.090 HD
ATOM     21  H   LIG d   1      -7.973  95.125 118.305  0.00  0.00    -0.090 HD
ENDBRANCH   5  18
BRANCH   3  22
ATOM     22  C   LIG d   1      -6.555  90.326 116.391  0.00  0.00     0.382 C 
ATOM     23  O   LIG d   1      -7.766  89.999 116.410  0.00  0.00    -0.241 OA
ATOM     24  O   LIG d   1      -5.752  89.666 115.705  0.00  0.00    -0.241 OA
ENDBRANCH   3  22
TORSDOF 7
ENDMDL
MODEL 5
REMARK VINA RESULT:      -4.9      2.535      5.254
REMARK  7 active torsions:
REMARK  status: ('A' for Active; 'I' for Inactive)
REMARK    1  A    between atoms: C_2  and  C_3 
REMARK    2  A    between atoms: C_3  and  O_6 
REMARK    3  A    between atoms: C_3  and  C_4 
REMARK    4  A    between atoms: C_7  and  O_6 
REMARK    5  A    between atoms: C_9  and  C_10 
REMARK    6  A    between atoms: N_15  and  C_14 
REMARK    7  A    between atoms: N_20  and  C_19 
REMARK       I    between atoms: C_22  and  N_20 
ROOT
ATOM      1  C   LIG d   1      -6.349  93.651 117.996  0.00  0.00     0.161 C 
ATOM      2  C   LIG d   1      -6.901  92.475 117.460  0.00  0.00     0.016 C 
ATOM      3  C   LIG d   1      -6.129  91.344 117.107  0.00  0.00     0.038 C 
ATOM      4  C   LIG d   1      -4.762  91.255 117.410  0.00  0.00     0.028 C 
ATOM      5  C   LIG d   1      -4.070  92.611 117.489  0.00  0.00    -0.047 C 
ATOM      6  C   LIG d   1      -4.875  93.531 118.436  0.00  0.00     0.091 C 
ENDROOT
BRANCH   1   7
ATOM      7  O   LIG d   1      -7.162  94.117 119.090  0.00  0.00    -0.368 OA
BRANCH   7   8
ATOM      8  C   LIG d   1      -8.405  94.769 118.728  0.00  0.00     0.119 C 
BRANCH   8   9
ATOM      9  C   LIG d   1      -8.068  95.871 117.704  0.00  0.00     0.028 C 
ATOM     10  C   LIG d   1      -8.114  97.279 118.321  0.00  0.00     0.006 C 
ENDBRANCH   8   9
BRANCH   8  11
ATOM     11  C   LIG d   1      -9.019  95.502 119.925  0.00  0.00     0.028 C 
ATOM     12  C   LIG d   1     -10.204  94.744 120.543  0.00  0.00     0.006 C 
ENDBRANCH   8  11
ENDBRANCH   7   8
ENDBRANCH   1   7
BRANCH   6  13
ATOM     13  N   LIG d   1      -4.313  94.905 118.505  0.00  0.00    -0.311 N 
ATOM     14  C   LIG d   1      -3.871  95.461 119.632  0.00  0.00     0.210 C 
ATOM     15  C   LIG d   1      -3.350  96.894 119.485  0.00  0.00     0.109 C 
ATOM     16  O   LIG d   1      -3.831  94.892 120.733  0.00  0.00    -0.276 OA
ATOM     17  H   LIG d   1      -4.279  95.427 117.651  0.00  0.00     0.149 HD
ENDBRANCH   6  13
BRANCH   5  18
ATOM     18  N   LIG d   1      -2.687  92.380 117.946  0.00  0.00     0.381 N 
ATOM     19  H   LIG d   1      -2.552  91.407 118.138  0.00  0.00    -0.090 HD
ATOM     20  H   LIG d   1      -2.535  92.893 118.797  0.00  0.00    -0.090 HD
ATOM     21  H   LIG d   1      -2.042  92.681 117.249  0.00  0.00    -0.090 HD
ENDBRANCH   5  18
BRANCH   3  22
ATOM     22  C   LIG d   1      -6.718  90.301 116.408  0.00  0.00     0.382 C 
ATOM     23  O   LIG d   1      -7.935  90.044 116.574  0.00  0.00    -0.241 OA
ATOM     24  O   LIG d   1      -6.038  89.587 115.647  0.00  0.00    -0.241 OA
ENDBRANCH   3  22
TORSDOF 7
ENDMDL
MODEL 6
REMARK VINA RESULT:      -4.6      2.542      4.721
REMARK  7 active torsions:
REMARK  status: ('A' for Active; 'I' for Inactive)
REMARK    1  A    between atoms: C_2  and  C_3 
REMARK    2  A    between atoms: C_3  and  O_6 
REMARK    3  A    between atoms: C_3  and  C_4 
REMARK    4  A    between atoms: C_7  and  O_6 
REMARK    5  A    between atoms: C_9  and  C_10 
REMARK    6  A    between atoms: N_15  and  C_14 
REMARK    7  A    between atoms: N_20  and  C_19 
REMARK       I    between atoms: C_22  and  N_20 
ROOT
ATOM      1  C   LIG d   1      -5.205  92.657 119.875  0.00  0.00     0.161 C 
ATOM      2  C   LIG d   1      -4.129  91.776 119.678  0.00  0.00     0.016 C 
ATOM      3  C   LIG d   1      -4.019  90.921 118.558  0.00  0.00     0.038 C 
ATOM      4  C   LIG d   1      -4.908  90.999 117.475  0.00  0.00     0.028 C 
ATOM      5  C   LIG d   1      -6.289  91.517 117.862  0.00  0.00    -0.047 C 
ATOM      6  C   LIG d   1      -6.127  92.836 118.651  0.00  0.00     0.091 C 
ENDROOT
BRANCH   1   7
ATOM      7  O   LIG d   1      -4.714  93.936 120.323  0.00  0.00    -0.368 OA
BRANCH   7   8
ATOM      8  C   LIG d   1      -4.409  94.901 119.286  0.00  0.00     0.119 C 
BRANCH   8   9
ATOM      9  C   LIG d   1      -2.881  95.094 119.268  0.00  0.00     0.028 C 
ATOM     10  C   LIG d   1      -2.223  94.457 118.033  0.00  0.00     0.006 C 
ENDBRANCH   8   9
BRANCH   8  11
ATOM     11  C   LIG d   1      -4.989  96.279 119.620  0.00  0.00     0.028 C 
ATOM     12  C   LIG d   1      -5.883  96.262 120.869  0.00  0.00     0.006 C 
ENDBRANCH   8  11
ENDBRANCH   7   8
ENDBRANCH   1   7
BRANCH   6  13
ATOM     13  N   LIG d   1      -7.426  93.367 119.140  0.00  0.00    -0.311 N 
ATOM     14  C   LIG d   1      -8.091  94.350 118.536  0.00  0.00     0.210 C 
ATOM     15  C   LIG d   1      -9.401  94.760 119.217  0.00  0.00     0.109 C 
ATOM     16  O   LIG d   1      -7.736  94.901 117.483  0.00  0.00    -0.276 OA
ATOM     17  H   LIG d   1      -7.803  92.956 119.972  0.00  0.00     0.149 HD
ENDBRANCH   6  13
BRANCH   5  18
ATOM     18  N   LIG d   1      -7.068  91.678 116.620  0.00  0.00     0.381 N 
ATOM     19  H   LIG d   1      -6.884  92.576 116.219  0.00  0.00    -0.090 HD
ATOM     20  H   LIG d   1      -8.047  91.626 116.841  0.00  0.00    -0.090 HD
ATOM     21  H   LIG d   1      -6.828  90.961 115.971  0.00  0.00    -0.090 HD
ENDBRANCH   5  18
BRANCH   3  22
ATOM     22  C   LIG d   1      -3.032  89.947 118.531  0.00  0.00     0.382 C 
ATOM     23  O   LIG d   1      -3.262  88.809 119.007  0.00  0.00    -0.241 OA
ATOM     24  O   LIG d   1      -1.901  90.205 118.078  0.00  0.00    -0.241 OA
ENDBRANCH   3  22
TORSDOF 7
ENDMDL
MODEL 7
REMARK VINA RESULT:      -4.5      2.475      4.082
REMARK  7 active torsions:
REMARK  status: ('A' for Active; 'I' for Inactive)
REMARK    1  A    between atoms: C_2  and  C_3 
REMARK    2  A    between atoms: C_3  and  O_6 
REMARK    3  A    between atoms: C_3  and  C_4 
REMARK    4  A    between atoms: C_7  and  O_6 
REMARK    5  A    between atoms: C_9  and  C_10 
REMARK    6  A    between atoms: N_15  and  C_14 
REMARK    7  A    between atoms: N_20  and  C_19 
REMARK       I    between atoms: C_22  and  N_20 
ROOT
ATOM      1  C   LIG d   1      -5.630  93.162 118.521  0.00  0.00     0.161 C 
ATOM      2  C   LIG d   1      -6.856  93.677 118.069  0.00  0.00     0.016 C 
ATOM      3  C   LIG d   1      -7.312  94.980 118.374  0.00  0.00     0.038 C 
ATOM      4  C   LIG d   1      -6.499  95.916 119.030  0.00  0.00     0.028 C 
ATOM      5  C   LIG d   1      -5.457  95.279 119.943  0.00  0.00    -0.047 C 
ATOM      6  C   LIG d   1      -4.680  94.207 119.145  0.00  0.00     0.091 C 
ENDROOT
BRANCH   1   7
ATOM      7  O   LIG d   1      -4.969  92.461 117.449  0.00  0.00    -0.368 OA
BRANCH   7   8
ATOM      8  C   LIG d   1      -5.143  91.023 117.425  0.00  0.00     0.119 C 
BRANCH   8   9
ATOM      9  C   LIG d   1      -3.744  90.385 117.521  0.00  0.00     0.028 C 
ATOM     10  C   LIG d   1      -3.341  90.071 118.972  0.00  0.00     0.006 C 
ENDBRANCH   8   9
BRANCH   8  11
ATOM     11  C   LIG d   1      -5.711  90.554 116.082  0.00  0.00     0.028 C 
ATOM     12  C   LIG d   1      -7.208  90.212 116.155  0.00  0.00     0.006 C 
ENDBRANCH   8  11
ENDBRANCH   7   8
ENDBRANCH   1   7
BRANCH   6  13
ATOM     13  N   LIG d   1      -3.697  93.475 119.987  0.00  0.00    -0.311 N 
ATOM     14  C   LIG d   1      -2.409  93.806 120.064  0.00  0.00     0.210 C 
ATOM     15  C   LIG d   1      -1.565  92.908 120.975  0.00  0.00     0.109 C 
ATOM     16  O   LIG d   1      -1.892  94.776 119.491  0.00  0.00    -0.276 OA
ATOM     17  H   LIG d   1      -4.038  92.693 120.510  0.00  0.00     0.149 HD
ENDBRANCH   6  13
BRANCH   5  18
ATOM     18  N   LIG d   1      -4.592  96.359 120.454  0.00  0.00     0.381 N 
ATOM     19  H   LIG d   1      -3.663  96.245 120.101  0.00  0.00    -0.090 HD
ATOM     20  H   LIG d   1      -4.558  96.300 121.457  0.00  0.00    -0.090 HD
ATOM     21  H   LIG d   1      -4.954  97.245 120.178  0.00  0.00    -0.090 HD
ENDBRANCH   5  18
BRANCH   3  22
ATOM     22  C   LIG d   1      -8.612  95.345 118.055  0.00  0.00     0.382 C 
ATOM     23  O   LIG d   1      -9.577  94.676 118.498  0.00  0.00    -0.241 OA
ATOM     24  O   LIG d   1      -8.829  96.307 117.295  0.00  0.00    -0.241 OA
ENDBRANCH   3  22
TORSDOF 7
ENDMDL
MODEL 8
REMARK VINA RESULT:      -4.4      2.229      4.230
REMARK  7 active torsions:
REMARK  status: ('A' for Active; 'I' for Inactive)
REMARK    1  A    between atoms: C_2  and  C_3 
REMARK    2  A    between atoms: C_3  and  O_6 
REMARK    3  A    between atoms: C_3  and  C_4 
REMARK    4  A    between atoms: C_7  and  O_6 
REMARK    5  A    between atoms: C_9  and  C_10 
REMARK    6  A    between atoms: N_15  and  C_14 
REMARK    7  A    between atoms: N_20  and  C_19 
REMARK       I    between atoms: C_22  and  N_20 
ROOT
ATOM      1  C   LIG d   1      -3.064  93.369 117.840  0.00  0.00     0.161 C 
ATOM      2  C   LIG d   1      -4.468  93.328 117.836  0.00  0.00     0.016 C 
ATOM      3  C   LIG d   1      -5.212  92.130 117.932  0.00  0.00     0.038 C 
ATOM      4  C   LIG d   1      -4.599  90.895 118.193  0.00  0.00     0.028 C 
ATOM      5  C   LIG d   1      -3.158  90.819 117.701  0.00  0.00    -0.047 C 
ATOM      6  C   LIG d   1      -2.380  92.043 118.235  0.00  0.00     0.091 C 
ENDROOT
BRANCH   1   7
ATOM      7  O   LIG d   1      -2.608  94.440 118.689  0.00  0.00    -0.368 OA
BRANCH   7   8
ATOM      8  C   LIG d   1      -3.293  94.583 119.958  0.00  0.00     0.119 C 
BRANCH   8   9
ATOM      9  C   LIG d   1      -3.818  96.030 120.040  0.00  0.00     0.028 C 
ATOM     10  C   LIG d   1      -3.077  96.978 119.082  0.00  0.00     0.006 C 
ENDBRANCH   8   9
BRANCH   8  11
ATOM     11  C   LIG d   1      -2.324  94.436 121.134  0.00  0.00     0.028 C 
ATOM     12  C   LIG d   1      -0.853  94.388 120.691  0.00  0.00     0.006 C 
ENDBRANCH   8  11
ENDBRANCH   7   8
ENDBRANCH   1   7
BRANCH   6  13
ATOM     13  N   LIG d   1      -0.982  92.091 117.731  0.00  0.00    -0.311 N 
ATOM     14  C   LIG d   1       0.053  91.574 118.391  0.00  0.00     0.210 C 
ATOM     15  C   LIG d   1       1.410  91.749 117.703  0.00  0.00     0.109 C 
ATOM     16  O   LIG d   1      -0.029  90.959 119.465  0.00  0.00    -0.276 OA
ATOM     17  H   LIG d   1      -0.830  92.544 116.851  0.00  0.00     0.149 HD
ENDBRANCH   6  13
BRANCH   5  18
ATOM     18  N   LIG d   1      -2.598  89.533 118.160  0.00  0.00     0.381 N 
ATOM     19  H   LIG d   1      -2.825  89.390 119.123  0.00  0.00    -0.090 HD
ATOM     20  H   LIG d   1      -1.598  89.565 118.072  0.00  0.00    -0.090 HD
ATOM     21  H   LIG d   1      -2.964  88.787 117.610  0.00  0.00    -0.090 HD
ENDBRANCH   5  18
BRANCH   3  22
ATOM     22  C   LIG d   1      -6.584  92.154 117.728  0.00  0.00     0.382 C 
ATOM     23  O   LIG d   1      -7.138  91.231 117.084  0.00  0.00    -0.241 OA
ATOM     24  O   LIG d   1      -7.267  93.110 118.140  0.00  0.00    -0.241 OA
ENDBRANCH   3  22
TORSDOF 7
ENDMDL
MODEL 9
REMARK VINA RESULT:      -4.3      4.043      5.782
REMARK  7 active torsions:
REMARK  status: ('A' for Active; 'I' for Inactive)
REMARK    1  A    between atoms: C_2  and  C_3 
REMARK    2  A    between atoms: C_3  and  O_6 
REMARK    3  A    between atoms: C_3  and  C_4 
REMARK    4  A    between atoms: C_7  and  O_6 
REMARK    5  A    between atoms: C_9  and  C_10 
REMARK    6  A    between atoms: N_15  and  C_14 
REMARK    7  A    between atoms: N_20  and  C_19 
REMARK       I    between atoms: C_22  and  N_20 
ROOT
ATOM      1  C   LIG d   1       0.709  89.579 119.479  0.00  0.00     0.161 C 
ATOM      2  C   LIG d   1      -0.601  89.071 119.497  0.00  0.00     0.016 C 
ATOM      3  C   LIG d   1      -1.684  89.686 118.828  0.00  0.00     0.038 C 
ATOM      4  C   LIG d   1      -1.499  90.777 117.966  0.00  0.00     0.028 C 
ATOM      5  C   LIG d   1      -0.282  91.627 118.316  0.00  0.00    -0.047 C 
ATOM      6  C   LIG d   1       0.951  90.705 118.453  0.00  0.00     0.091 C 
ENDROOT
BRANCH   1   7
ATOM      7  O   LIG d   1       1.647  88.504 119.274  0.00  0.00    -0.368 OA
BRANCH   7   8
ATOM      8  C   LIG d   1       1.459  87.714 118.075  0.00  0.00     0.119 C 
BRANCH   8   9
ATOM      9  C   LIG d   1       1.622  86.232 118.466  0.00  0.00     0.028 C 
ATOM     10  C   LIG d   1       0.291  85.588 118.888  0.00  0.00     0.006 C 
ENDBRANCH   8   9
BRANCH   8  11
ATOM     11  C   LIG d   1       2.564  87.986 117.049  0.00  0.00     0.028 C 
ATOM     12  C   LIG d   1       2.337  87.251 115.719  0.00  0.00     0.006 C 
ENDBRANCH   8  11
ENDBRANCH   7   8
ENDBRANCH   1   7
BRANCH   6  13
ATOM     13  N   LIG d   1       2.168  91.446 118.876  0.00  0.00    -0.311 N 
ATOM     14  C   LIG d   1       3.090  91.890 118.024  0.00  0.00     0.210 C 
ATOM     15  C   LIG d   1       4.276  92.611 118.672  0.00  0.00     0.109 C 
ATOM     16  O   LIG d   1       3.023  91.783 116.790  0.00  0.00    -0.276 OA
ATOM     17  H   LIG d   1       2.287  91.604 119.858  0.00  0.00     0.149 HD
ENDBRANCH   6  13
BRANCH   5  18
ATOM     18  N   LIG d   1      -0.130  92.644 117.259  0.00  0.00     0.381 N 
ATOM     19  H   LIG d   1       0.789  92.590 116.866  0.00  0.00    -0.090 HD
ATOM     20  H   LIG d   1      -0.246  93.556 117.665  0.00  0.00    -0.090 HD
ATOM     21  H   LIG d   1      -0.811  92.501 116.547  0.00  0.00    -0.090 HD
ENDBRANCH   5  18
BRANCH   3  22
ATOM     22  C   LIG d   1      -2.975  89.235 119.052  0.00  0.00     0.382 C 
ATOM     23  O   LIG d   1      -3.170  88.215 119.756  0.00  0.00    -0.241 OA
ATOM     24  O   LIG d   1      -3.946  89.808 118.522  0.00  0.00    -0.241 OA
ENDBRANCH   3  22
TORSDOF 7
ENDMDL
