MODEL 1
REMARK VINA RESULT:      -4.2      0.000      0.000
REMARK  7 active torsions:
REMARK  status: ('A' for Active; 'I' for Inactive)
REMARK    1  A    between atoms: C_2  and  C_3 
REMARK    2  A    between atoms: C_3  and  O_6 
REMARK    3  A    between atoms: C_3  and  C_4 
REMARK    4  A    between atoms: C_7  and  O_6 
REMARK    5  A    between atoms: C_9  and  C_10 
REMARK    6  A    between atoms: N_15  and  C_14 
REMARK    7  A    between atoms: N_20  and  C_19 
REMARK       I    between atoms: C_22  and  N_20 
ROOT
ATOM      1  C   LIG d   1      -3.005  92.306 120.619  0.00  0.00     0.161 C 
ATOM      2  C   LIG d   1      -4.203  92.873 120.155  0.00  0.00     0.016 C 
ATOM      3  C   LIG d   1      -4.556  94.226 120.363  0.00  0.00     0.038 C 
ATOM      4  C   LIG d   1      -3.660  95.148 120.924  0.00  0.00     0.028 C 
ATOM      5  C   LIG d   1      -2.641  94.509 121.861  0.00  0.00    -0.047 C 
ATOM      6  C   LIG d   1      -1.966  93.323 121.135  0.00  0.00     0.091 C 
ENDROOT
BRANCH   1   7
ATOM      7  O   LIG d   1      -2.427  91.476 119.592  0.00  0.00    -0.368 OA
BRANCH   7   8
ATOM      8  C   LIG d   1      -2.600  91.935 118.229  0.00  0.00     0.119 C 
BRANCH   8   9
ATOM      9  C   LIG d   1      -2.882  90.697 117.356  0.00  0.00     0.028 C 
ATOM     10  C   LIG d   1      -4.262  90.759 116.679  0.00  0.00     0.006 C 
ENDBRANCH   8   9
BRANCH   8  11
ATOM     11  C   LIG d   1      -1.305  92.536 117.675  0.00  0.00     0.028 C 
ATOM     12  C   LIG d   1      -0.138  91.536 117.673  0.00  0.00     0.006 C 
ENDBRANCH   8  11
ENDBRANCH   7   8
ENDBRANCH   1   7
BRANCH   6  13
ATOM     13  N   LIG d   1      -1.015  92.590 122.011  0.00  0.00    -0.311 N 
ATOM     14  C   LIG d   1       0.278  92.441 121.727  0.00  0.00     0.210 C 
ATOM     15  C   LIG d   1       1.077  91.633 122.754  0.00  0.00     0.109 C 
ATOM     16  O   LIG d   1       0.845  92.929 120.738  0.00  0.00    -0.276 OA
ATOM     17  H   LIG d   1      -1.385  92.188 122.850  0.00  0.00     0.149 HD
ENDBRANCH   6  13
BRANCH   5  18
ATOM     18  N   LIG d   1      -1.686  95.559 122.264  0.00  0.00     0.381 N 
ATOM     19  H   LIG d   1      -0.761  95.179 122.303  0.00  0.00    -0.090 HD
ATOM     20  H   LIG d   1      -1.932  95.887 123.182  0.00  0.00    -0.090 HD
ATOM     21  H   LIG d   1      -1.716  96.314 121.615  0.00  0.00    -0.090 HD
ENDBRANCH   5  18
BRANCH   3  22
ATOM     22  C   LIG d   1      -5.834  94.660 120.045  0.00  0.00     0.382 C 
ATOM     23  O   LIG d   1      -6.299  95.691 120.588  0.00  0.00    -0.241 OA
ATOM     24  O   LIG d   1      -6.545  94.008 119.257  0.00  0.00    -0.241 OA
ENDBRANCH   3  22
TORSDOF 7
ENDMDL
MODEL 2
REMARK VINA RESULT:      -4.1      4.895      8.080
REMARK  7 active torsions:
REMARK  status: ('A' for Active; 'I' for Inactive)
REMARK    1  A    between atoms: C_2  and  C_3 
REMARK    2  A    between atoms: C_3  and  O_6 
REMARK    3  A    between atoms: C_3  and  C_4 
REMARK    4  A    between atoms: C_7  and  O_6 
REMARK    5  A    between atoms: C_9  and  C_10 
REMARK    6  A    between atoms: N_15  and  C_14 
REMARK    7  A    between atoms: N_20  and  C_19 
REMARK       I    between atoms: C_22  and  N_20 
ROOT
ATOM      1  C   LIG d   1       3.058  90.578 119.000  0.00  0.00     0.161 C 
ATOM      2  C   LIG d   1       3.624  91.859 119.118  0.00  0.00     0.016 C 
ATOM      3  C   LIG d   1       4.577  92.375 118.209  0.00  0.00     0.038 C 
ATOM      4  C   LIG d   1       4.917  91.699 117.028  0.00  0.00     0.028 C 
ATOM      5  C   LIG d   1       4.751  90.187 117.126  0.00  0.00    -0.047 C 
ATOM      6  C   LIG d   1       3.334  89.871 117.657  0.00  0.00     0.091 C 
ENDROOT
BRANCH   1   7
ATOM      7  O   LIG d   1       1.640  90.647 119.248  0.00  0.00    -0.368 OA
BRANCH   7   8
ATOM      8  C   LIG d   1       0.999  91.909 118.942  0.00  0.00     0.119 C 
BRANCH   8   9
ATOM      9  C   LIG d   1       0.055  92.245 120.112  0.00  0.00     0.028 C 
ATOM     10  C   LIG d   1       0.809  92.431 121.440  0.00  0.00     0.006 C 
ENDBRANCH   8   9
BRANCH   8  11
ATOM     11  C   LIG d   1       0.094  91.791 117.712  0.00  0.00     0.028 C 
ATOM     12  C   LIG d   1      -1.401  91.837 118.066  0.00  0.00     0.006 C 
ENDBRANCH   8  11
ENDBRANCH   7   8
ENDBRANCH   1   7
BRANCH   6  13
ATOM     13  N   LIG d   1       3.117  88.415 117.863  0.00  0.00    -0.311 N 
ATOM     14  C   LIG d   1       2.567  87.619 116.947  0.00  0.00     0.210 C 
ATOM     15  C   LIG d   1       2.417  86.154 117.370  0.00  0.00     0.109 C 
ATOM     16  O   LIG d   1       2.219  87.980 115.813  0.00  0.00    -0.276 OA
ATOM     17  H   LIG d   1       3.400  88.032 118.743  0.00  0.00     0.149 HD
ENDBRANCH   6  13
BRANCH   5  18
ATOM     18  N   LIG d   1       5.007  89.622 115.788  0.00  0.00     0.381 N 
ATOM     19  H   LIG d   1       4.704  88.669 115.759  0.00  0.00    -0.090 HD
ATOM     20  H   LIG d   1       5.996  89.644 115.609  0.00  0.00    -0.090 HD
ATOM     21  H   LIG d   1       4.525  90.153 115.096  0.00  0.00    -0.090 HD
ENDBRANCH   5  18
BRANCH   3  22
ATOM     22  C   LIG d   1       5.230  93.563 118.500  0.00  0.00     0.382 C 
ATOM     23  O   LIG d   1       5.895  93.671 119.558  0.00  0.00    -0.241 OA
ATOM     24  O   LIG d   1       5.125  94.544 117.738  0.00  0.00    -0.241 OA
ENDBRANCH   3  22
TORSDOF 7
ENDMDL
MODEL 3
REMARK VINA RESULT:      -4.1      0.902      1.184
REMARK  7 active torsions:
REMARK  status: ('A' for Active; 'I' for Inactive)
REMARK    1  A    between atoms: C_2  and  C_3 
REMARK    2  A    between atoms: C_3  and  O_6 
REMARK    3  A    between atoms: C_3  and  C_4 
REMARK    4  A    between atoms: C_7  and  O_6 
REMARK    5  A    between atoms: C_9  and  C_10 
REMARK    6  A    between atoms: N_15  and  C_14 
REMARK    7  A    between atoms: N_20  and  C_19 
REMARK       I    between atoms: C_22  and  N_20 
ROOT
ATOM      1  C   LIG d   1      -2.313  91.884 120.623  0.00  0.00     0.161 C 
ATOM      2  C   LIG d   1      -3.502  92.604 120.416  0.00  0.00     0.016 C 
ATOM      3  C   LIG d   1      -3.699  93.928 120.873  0.00  0.00     0.038 C 
ATOM      4  C   LIG d   1      -2.659  94.679 121.440  0.00  0.00     0.028 C 
ATOM      5  C   LIG d   1      -1.596  93.824 122.123  0.00  0.00    -0.047 C 
ATOM      6  C   LIG d   1      -1.129  92.726 121.141  0.00  0.00     0.091 C 
ENDROOT
BRANCH   1   7
ATOM      7  O   LIG d   1      -1.945  91.192 119.413  0.00  0.00    -0.368 OA
BRANCH   7   8
ATOM      8  C   LIG d   1      -2.360  91.814 118.172  0.00  0.00     0.119 C 
BRANCH   8   9
ATOM      9  C   LIG d   1      -2.767  90.687 117.203  0.00  0.00     0.028 C 
ATOM     10  C   LIG d   1      -4.234  90.799 116.755  0.00  0.00     0.006 C 
ENDBRANCH   8   9
BRANCH   8  11
ATOM     11  C   LIG d   1      -1.192  92.532 117.490  0.00  0.00     0.028 C 
ATOM     12  C   LIG d   1       0.165  91.870 117.779  0.00  0.00     0.006 C 
ENDBRANCH   8  11
ENDBRANCH   7   8
ENDBRANCH   1   7
BRANCH   6  13
ATOM     13  N   LIG d   1      -0.150  91.793 121.758  0.00  0.00    -0.311 N 
ATOM     14  C   LIG d   1       1.169  91.929 121.637  0.00  0.00     0.210 C 
ATOM     15  C   LIG d   1       1.998  90.846 122.335  0.00  0.00     0.109 C 
ATOM     16  O   LIG d   1       1.733  92.862 121.045  0.00  0.00    -0.276 OA
ATOM     17  H   LIG d   1      -0.520  91.025 122.283  0.00  0.00     0.149 HD
ENDBRANCH   6  13
BRANCH   5  18
ATOM     18  N   LIG d   1      -0.506  94.723 122.548  0.00  0.00     0.381 N 
ATOM     19  H   LIG d   1       0.257  94.657 121.904  0.00  0.00    -0.090 HD
ATOM     20  H   LIG d   1      -0.181  94.434 123.453  0.00  0.00    -0.090 HD
ATOM     21  H   LIG d   1      -0.835  95.662 122.589  0.00  0.00    -0.090 HD
ENDBRANCH   5  18
BRANCH   3  22
ATOM     22  C   LIG d   1      -4.960  94.499 120.801  0.00  0.00     0.382 C 
ATOM     23  O   LIG d   1      -5.808  94.047 119.994  0.00  0.00    -0.241 OA
ATOM     24  O   LIG d   1      -5.247  95.488 121.502  0.00  0.00    -0.241 OA
ENDBRANCH   3  22
TORSDOF 7
ENDMDL
MODEL 4
REMARK VINA RESULT:      -4.0      2.608      5.729
REMARK  7 active torsions:
REMARK  status: ('A' for Active; 'I' for Inactive)
REMARK    1  A    between atoms: C_2  and  C_3 
REMARK    2  A    between atoms: C_3  and  O_6 
REMARK    3  A    between atoms: C_3  and  C_4 
REMARK    4  A    between atoms: C_7  and  O_6 
REMARK    5  A    between atoms: C_9  and  C_10 
REMARK    6  A    between atoms: N_15  and  C_14 
REMARK    7  A    between atoms: N_20  and  C_19 
REMARK       I    between atoms: C_22  and  N_20 
ROOT
ATOM      1  C   LIG d   1       0.139  92.175 119.313  0.00  0.00     0.161 C 
ATOM      2  C   LIG d   1       1.111  91.713 118.409  0.00  0.00     0.016 C 
ATOM      3  C   LIG d   1       2.478  91.576 118.740  0.00  0.00     0.038 C 
ATOM      4  C   LIG d   1       2.945  91.749 120.051  0.00  0.00     0.028 C 
ATOM      5  C   LIG d   1       2.089  92.703 120.878  0.00  0.00    -0.047 C 
ATOM      6  C   LIG d   1       0.610  92.263 120.779  0.00  0.00     0.091 C 
ENDROOT
BRANCH   1   7
ATOM      7  O   LIG d   1      -1.046  91.360 119.215  0.00  0.00    -0.368 OA
BRANCH   7   8
ATOM      8  C   LIG d   1      -2.084  91.849 118.331  0.00  0.00     0.119 C 
BRANCH   8   9
ATOM      9  C   LIG d   1      -2.764  93.042 119.030  0.00  0.00     0.028 C 
ATOM     10  C   LIG d   1      -3.981  92.615 119.868  0.00  0.00     0.006 C 
ENDBRANCH   8   9
BRANCH   8  11
ATOM     11  C   LIG d   1      -3.190  90.806 118.140  0.00  0.00     0.028 C 
ATOM     12  C   LIG d   1      -3.509  90.539 116.661  0.00  0.00     0.006 C 
ENDBRANCH   8  11
ENDBRANCH   7   8
ENDBRANCH   1   7
BRANCH   6  13
ATOM     13  N   LIG d   1      -0.306  93.192 121.491  0.00  0.00    -0.311 N 
ATOM     14  C   LIG d   1      -1.269  92.784 122.315  0.00  0.00     0.210 C 
ATOM     15  C   LIG d   1      -2.113  93.905 122.929  0.00  0.00     0.109 C 
ATOM     16  O   LIG d   1      -1.485  91.601 122.620  0.00  0.00    -0.276 OA
ATOM     17  H   LIG d   1      -0.181  94.172 121.325  0.00  0.00     0.149 HD
ENDBRANCH   6  13
BRANCH   5  18
ATOM     18  N   LIG d   1       2.607  92.684 122.258  0.00  0.00     0.381 N 
ATOM     19  H   LIG d   1       2.909  91.760 122.495  0.00  0.00    -0.090 HD
ATOM     20  H   LIG d   1       1.868  92.945 122.887  0.00  0.00    -0.090 HD
ATOM     21  H   LIG d   1       3.368  93.322 122.346  0.00  0.00    -0.090 HD
ENDBRANCH   5  18
BRANCH   3  22
ATOM     22  C   LIG d   1       3.402  91.300 117.743  0.00  0.00     0.382 C 
ATOM     23  O   LIG d   1       3.571  90.119 117.354  0.00  0.00    -0.241 OA
ATOM     24  O   LIG d   1       4.100  92.211 117.259  0.00  0.00    -0.241 OA
ENDBRANCH   3  22
TORSDOF 7
ENDMDL
MODEL 5
REMARK VINA RESULT:      -4.0      2.204      4.862
REMARK  7 active torsions:
REMARK  status: ('A' for Active; 'I' for Inactive)
REMARK    1  A    between atoms: C_2  and  C_3 
REMARK    2  A    between atoms: C_3  and  O_6 
REMARK    3  A    between atoms: C_3  and  C_4 
REMARK    4  A    between atoms: C_7  and  O_6 
REMARK    5  A    between atoms: C_9  and  C_10 
REMARK    6  A    between atoms: N_15  and  C_14 
REMARK    7  A    between atoms: N_20  and  C_19 
REMARK       I    between atoms: C_22  and  N_20 
ROOT
ATOM      1  C   LIG d   1      -2.235  93.304 120.206  0.00  0.00     0.161 C 
ATOM      2  C   LIG d   1      -1.785  92.152 120.872  0.00  0.00     0.016 C 
ATOM      3  C   LIG d   1      -2.552  91.464 121.841  0.00  0.00     0.038 C 
ATOM      4  C   LIG d   1      -3.890  91.796 122.100  0.00  0.00     0.028 C 
ATOM      5  C   LIG d   1      -4.216  93.259 121.819  0.00  0.00    -0.047 C 
ATOM      6  C   LIG d   1      -3.735  93.616 120.395  0.00  0.00     0.091 C 
ENDROOT
BRANCH   1   7
ATOM      7  O   LIG d   1      -1.915  93.213 118.803  0.00  0.00    -0.368 OA
BRANCH   7   8
ATOM      8  C   LIG d   1      -1.453  91.922 118.337  0.00  0.00     0.119 C 
BRANCH   8   9
ATOM      9  C   LIG d   1      -0.074  92.133 117.682  0.00  0.00     0.028 C 
ATOM     10  C   LIG d   1       1.076  91.590 118.547  0.00  0.00     0.006 C 
ENDBRANCH   8   9
BRANCH   8  11
ATOM     11  C   LIG d   1      -2.352  91.377 117.224  0.00  0.00     0.028 C 
ATOM     12  C   LIG d   1      -3.631  90.716 117.761  0.00  0.00     0.006 C 
ENDBRANCH   8  11
ENDBRANCH   7   8
ENDBRANCH   1   7
BRANCH   6  13
ATOM     13  N   LIG d   1      -3.939  95.052 120.070  0.00  0.00    -0.311 N 
ATOM     14  C   LIG d   1      -5.099  95.549 119.643  0.00  0.00     0.210 C 
ATOM     15  C   LIG d   1      -5.088  97.052 119.347  0.00  0.00     0.109 C 
ATOM     16  O   LIG d   1      -6.144  94.894 119.512  0.00  0.00    -0.276 OA
ATOM     17  H   LIG d   1      -3.152  95.661 120.178  0.00  0.00     0.149 HD
ENDBRANCH   6  13
BRANCH   5  18
ATOM     18  N   LIG d   1      -5.670  93.434 121.999  0.00  0.00     0.381 N 
ATOM     19  H   LIG d   1      -5.954  94.316 121.621  0.00  0.00    -0.090 HD
ATOM     20  H   LIG d   1      -5.878  93.431 122.982  0.00  0.00    -0.090 HD
ATOM     21  H   LIG d   1      -6.161  92.696 121.546  0.00  0.00    -0.090 HD
ENDBRANCH   5  18
BRANCH   3  22
ATOM     22  C   LIG d   1      -1.967  90.455 122.590  0.00  0.00     0.382 C 
ATOM     23  O   LIG d   1      -0.751  90.523 122.893  0.00  0.00    -0.241 OA
ATOM     24  O   LIG d   1      -2.628  89.455 122.930  0.00  0.00    -0.241 OA
ENDBRANCH   3  22
TORSDOF 7
ENDMDL
MODEL 6
REMARK VINA RESULT:      -4.0      6.566     10.046
REMARK  7 active torsions:
REMARK  status: ('A' for Active; 'I' for Inactive)
REMARK    1  A    between atoms: C_2  and  C_3 
REMARK    2  A    between atoms: C_3  and  O_6 
REMARK    3  A    between atoms: C_3  and  C_4 
REMARK    4  A    between atoms: C_7  and  O_6 
REMARK    5  A    between atoms: C_9  and  C_10 
REMARK    6  A    between atoms: N_15  and  C_14 
REMARK    7  A    between atoms: N_20  and  C_19 
REMARK       I    between atoms: C_22  and  N_20 
ROOT
ATOM      1  C   LIG d   1       5.194  90.597 116.622  0.00  0.00     0.161 C 
ATOM      2  C   LIG d   1       6.596  90.511 116.607  0.00  0.00     0.016 C 
ATOM      3  C   LIG d   1       7.408  90.847 117.715  0.00  0.00     0.038 C 
ATOM      4  C   LIG d   1       6.860  91.152 118.970  0.00  0.00     0.028 C 
ATOM      5  C   LIG d   1       5.456  91.741 118.892  0.00  0.00    -0.047 C 
ATOM      6  C   LIG d   1       4.574  90.821 118.017  0.00  0.00     0.091 C 
ENDROOT
BRANCH   1   7
ATOM      7  O   LIG d   1       4.626  89.426 116.003  0.00  0.00    -0.368 OA
BRANCH   7   8
ATOM      8  C   LIG d   1       4.954  88.157 116.620  0.00  0.00     0.119 C 
BRANCH   8   9
ATOM      9  C   LIG d   1       5.490  87.229 115.513  0.00  0.00     0.028 C 
ATOM     10  C   LIG d   1       6.994  86.945 115.663  0.00  0.00     0.006 C 
ENDBRANCH   8   9
BRANCH   8  11
ATOM     11  C   LIG d   1       3.701  87.460 117.160  0.00  0.00     0.028 C 
ATOM     12  C   LIG d   1       2.412  87.935 116.473  0.00  0.00     0.006 C 
ENDBRANCH   8  11
ENDBRANCH   7   8
ENDBRANCH   1   7
BRANCH   6  13
ATOM     13  N   LIG d   1       3.206  91.367 117.819  0.00  0.00    -0.311 N 
ATOM     14  C   LIG d   1       2.156  90.998 118.550  0.00  0.00     0.210 C 
ATOM     15  C   LIG d   1       0.834  91.669 118.168  0.00  0.00     0.109 C 
ATOM     16  O   LIG d   1       2.201  90.202 119.500  0.00  0.00    -0.276 OA
ATOM     17  H   LIG d   1       3.086  92.042 117.090  0.00  0.00     0.149 HD
ENDBRANCH   6  13
BRANCH   5  18
ATOM     18  N   LIG d   1       4.954  91.881 120.272  0.00  0.00     0.381 N 
ATOM     19  H   LIG d   1       4.013  91.546 120.326  0.00  0.00    -0.090 HD
ATOM     20  H   LIG d   1       4.957  92.855 120.521  0.00  0.00    -0.090 HD
ATOM     21  H   LIG d   1       5.533  91.369 120.899  0.00  0.00    -0.090 HD
ENDBRANCH   5  18
BRANCH   3  22
ATOM     22  C   LIG d   1       8.784  90.921 117.561  0.00  0.00     0.382 C 
ATOM     23  O   LIG d   1       9.346  92.039 117.466  0.00  0.00    -0.241 OA
ATOM     24  O   LIG d   1       9.466  89.882 117.472  0.00  0.00    -0.241 OA
ENDBRANCH   3  22
TORSDOF 7
ENDMDL
MODEL 7
REMARK VINA RESULT:      -4.0      1.920      2.873
REMARK  7 active torsions:
REMARK  status: ('A' for Active; 'I' for Inactive)
REMARK    1  A    between atoms: C_2  and  C_3 
REMARK    2  A    between atoms: C_3  and  O_6 
REMARK    3  A    between atoms: C_3  and  C_4 
REMARK    4  A    between atoms: C_7  and  O_6 
REMARK    5  A    between atoms: C_9  and  C_10 
REMARK    6  A    between atoms: N_15  and  C_14 
REMARK    7  A    between atoms: N_20  and  C_19 
REMARK       I    between atoms: C_22  and  N_20 
ROOT
ATOM      1  C   LIG d   1      -4.072  93.772 120.416  0.00  0.00     0.161 C 
ATOM      2  C   LIG d   1      -5.397  93.704 119.952  0.00  0.00     0.016 C 
ATOM      3  C   LIG d   1      -6.379  94.674 120.256  0.00  0.00     0.038 C 
ATOM      4  C   LIG d   1      -6.061  95.867 120.924  0.00  0.00     0.028 C 
ATOM      5  C   LIG d   1      -4.852  95.741 121.845  0.00  0.00    -0.047 C 
ATOM      6  C   LIG d   1      -3.679  95.121 121.052  0.00  0.00     0.091 C 
ENDROOT
BRANCH   1   7
ATOM      7  O   LIG d   1      -3.163  93.438 119.348  0.00  0.00    -0.368 OA
BRANCH   7   8
ATOM      8  C   LIG d   1      -2.666  92.077 119.337  0.00  0.00     0.119 C 
BRANCH   8   9
ATOM      9  C   LIG d   1      -1.319  92.071 120.087  0.00  0.00     0.028 C 
ATOM     10  C   LIG d   1      -0.115  92.035 119.130  0.00  0.00     0.006 C 
ENDBRANCH   8   9
BRANCH   8  11
ATOM     11  C   LIG d   1      -2.340  91.614 117.914  0.00  0.00     0.028 C 
ATOM     12  C   LIG d   1      -3.468  90.781 117.286  0.00  0.00     0.006 C 
ENDBRANCH   8  11
ENDBRANCH   7   8
ENDBRANCH   1   7
BRANCH   6  13
ATOM     13  N   LIG d   1      -2.482  94.886 121.902  0.00  0.00    -0.311 N 
ATOM     14  C   LIG d   1      -1.483  95.759 122.018  0.00  0.00     0.210 C 
ATOM     15  C   LIG d   1      -0.336  95.310 122.930  0.00  0.00     0.109 C 
ATOM     16  O   LIG d   1      -1.452  96.875 121.478  0.00  0.00    -0.276 OA
ATOM     17  H   LIG d   1      -2.440  94.019 122.400  0.00  0.00     0.149 HD
ENDBRANCH   6  13
BRANCH   5  18
ATOM     18  N   LIG d   1      -4.550  97.086 122.369  0.00  0.00     0.381 N 
ATOM     19  H   LIG d   1      -3.653  97.384 122.041  0.00  0.00    -0.090 HD
ATOM     20  H   LIG d   1      -4.521  97.046 123.372  0.00  0.00    -0.090 HD
ATOM     21  H   LIG d   1      -5.249  97.732 122.075  0.00  0.00    -0.090 HD
ENDBRANCH   5  18
BRANCH   3  22
ATOM     22  C   LIG d   1      -7.704  94.438 119.925  0.00  0.00     0.382 C 
ATOM     23  O   LIG d   1      -8.620  94.831 120.687  0.00  0.00    -0.241 OA
ATOM     24  O   LIG d   1      -7.994  93.798 118.896  0.00  0.00    -0.241 OA
ENDBRANCH   3  22
TORSDOF 7
ENDMDL
MODEL 8
REMARK VINA RESULT:      -4.0      6.310      8.637
REMARK  7 active torsions:
REMARK  status: ('A' for Active; 'I' for Inactive)
REMARK    1  A    between atoms: C_2  and  C_3 
REMARK    2  A    between atoms: C_3  and  O_6 
REMARK    3  A    between atoms: C_3  and  C_4 
REMARK    4  A    between atoms: C_7  and  O_6 
REMARK    5  A    between atoms: C_9  and  C_10 
REMARK    6  A    between atoms: N_15  and  C_14 
REMARK    7  A    between atoms: N_20  and  C_19 
REMARK       I    between atoms: C_22  and  N_20 
ROOT
ATOM      1  C   LIG d   1       3.929  89.180 117.334  0.00  0.00     0.161 C 
ATOM      2  C   LIG d   1       2.696  89.793 117.611  0.00  0.00     0.016 C 
ATOM      3  C   LIG d   1       2.576  91.121 118.081  0.00  0.00     0.038 C 
ATOM      4  C   LIG d   1       3.680  91.981 118.164  0.00  0.00     0.028 C 
ATOM      5  C   LIG d   1       5.002  91.251 118.376  0.00  0.00    -0.047 C 
ATOM      6  C   LIG d   1       5.138  90.139 117.311  0.00  0.00     0.091 C 
ENDROOT
BRANCH   1   7
ATOM      7  O   LIG d   1       3.845  88.451 116.093  0.00  0.00    -0.368 OA
BRANCH   7   8
ATOM      8  C   LIG d   1       3.976  87.011 116.189  0.00  0.00     0.119 C 
BRANCH   8   9
ATOM      9  C   LIG d   1       5.276  86.616 115.463  0.00  0.00     0.028 C 
ATOM     10  C   LIG d   1       6.121  85.617 116.272  0.00  0.00     0.006 C 
ENDBRANCH   8   9
BRANCH   8  11
ATOM     11  C   LIG d   1       2.854  86.297 115.430  0.00  0.00     0.028 C 
ATOM     12  C   LIG d   1       1.461  86.854 115.764  0.00  0.00     0.006 C 
ENDBRANCH   8  11
ENDBRANCH   7   8
ENDBRANCH   1   7
BRANCH   6  13
ATOM     13  N   LIG d   1       6.365  89.321 117.499  0.00  0.00    -0.311 N 
ATOM     14  C   LIG d   1       7.515  89.572 116.877  0.00  0.00     0.210 C 
ATOM     15  C   LIG d   1       8.650  88.594 117.198  0.00  0.00     0.109 C 
ATOM     16  O   LIG d   1       7.713  90.530 116.116  0.00  0.00    -0.276 OA
ATOM     17  H   LIG d   1       6.302  88.541 118.124  0.00  0.00     0.149 HD
ENDBRANCH   6  13
BRANCH   5  18
ATOM     18  N   LIG d   1       6.082  92.254 118.305  0.00  0.00     0.381 N 
ATOM     19  H   LIG d   1       6.657  92.077 117.506  0.00  0.00    -0.090 HD
ATOM     20  H   LIG d   1       6.653  92.176 119.128  0.00  0.00    -0.090 HD
ATOM     21  H   LIG d   1       5.693  93.170 118.246  0.00  0.00    -0.090 HD
ENDBRANCH   5  18
BRANCH   3  22
ATOM     22  C   LIG d   1       1.344  91.587 118.514  0.00  0.00     0.382 C 
ATOM     23  O   LIG d   1       0.590  92.198 117.718  0.00  0.00    -0.241 OA
ATOM     24  O   LIG d   1       0.995  91.444 119.701  0.00  0.00    -0.241 OA
ENDBRANCH   3  22
TORSDOF 7
ENDMDL
MODEL 9
REMARK VINA RESULT:      -3.7      2.018      4.492
REMARK  7 active torsions:
REMARK  status: ('A' for Active; 'I' for Inactive)
REMARK    1  A    between atoms: C_2  and  C_3 
REMARK    2  A    between atoms: C_3  and  O_6 
REMARK    3  A    between atoms: C_3  and  C_4 
REMARK    4  A    between atoms: C_7  and  O_6 
REMARK    5  A    between atoms: C_9  and  C_10 
REMARK    6  A    between atoms: N_15  and  C_14 
REMARK    7  A    between atoms: N_20  and  C_19 
REMARK       I    between atoms: C_22  and  N_20 
ROOT
ATOM      1  C   LIG d   1      -3.563  92.722 120.017  0.00  0.00     0.161 C 
ATOM      2  C   LIG d   1      -4.137  91.986 118.968  0.00  0.00     0.016 C 
ATOM      3  C   LIG d   1      -3.382  91.221 118.049  0.00  0.00     0.038 C 
ATOM      4  C   LIG d   1      -2.003  91.017 118.211  0.00  0.00     0.028 C 
ATOM      5  C   LIG d   1      -1.308  92.149 118.961  0.00  0.00    -0.047 C 
ATOM      6  C   LIG d   1      -2.072  92.422 120.277  0.00  0.00     0.091 C 
ENDROOT
BRANCH   1   7
ATOM      7  O   LIG d   1      -4.329  92.532 121.223  0.00  0.00    -0.368 OA
BRANCH   7   8
ATOM      8  C   LIG d   1      -5.045  93.693 121.713  0.00  0.00     0.119 C 
BRANCH   8   9
ATOM      9  C   LIG d   1      -5.005  94.763 120.605  0.00  0.00     0.028 C 
ATOM     10  C   LIG d   1      -6.383  94.996 119.965  0.00  0.00     0.006 C 
ENDBRANCH   8   9
BRANCH   8  11
ATOM     11  C   LIG d   1      -4.330  94.323 122.912  0.00  0.00     0.028 C 
ATOM     12  C   LIG d   1      -3.886  95.771 122.647  0.00  0.00     0.006 C 
ENDBRANCH   8  11
ENDBRANCH   7   8
ENDBRANCH   1   7
BRANCH   6  13
ATOM     13  N   LIG d   1      -1.507  93.571 121.031  0.00  0.00    -0.311 N 
ATOM     14  C   LIG d   1      -0.598  93.439 121.996  0.00  0.00     0.210 C 
ATOM     15  C   LIG d   1      -0.164  94.750 122.659  0.00  0.00     0.109 C 
ATOM     16  O   LIG d   1      -0.086  92.364 122.343  0.00  0.00    -0.276 OA
ATOM     17  H   LIG d   1      -1.844  94.483 120.793  0.00  0.00     0.149 HD
ENDBRANCH   6  13
BRANCH   5  18
ATOM     18  N   LIG d   1       0.093  91.743 119.179  0.00  0.00     0.381 N 
ATOM     19  H   LIG d   1       0.686  92.549 119.163  0.00  0.00    -0.090 HD
ATOM     20  H   LIG d   1       0.374  91.130 118.434  0.00  0.00    -0.090 HD
ATOM     21  H   LIG d   1       0.181  91.276 120.055  0.00  0.00    -0.090 HD
ENDBRANCH   5  18
BRANCH   3  22
ATOM     22  C   LIG d   1      -4.000  90.682 116.931  0.00  0.00     0.382 C 
ATOM     23  O   LIG d   1      -5.205  90.941 116.695  0.00  0.00    -0.241 OA
ATOM     24  O   LIG d   1      -3.381  89.906 116.179  0.00  0.00    -0.241 OA
ENDBRANCH   3  22
TORSDOF 7
ENDMDL
