MODEL 1
REMARK VINA RESULT:      -5.4      0.000      0.000
REMARK  7 active torsions:
REMARK  status: ('A' for Active; 'I' for Inactive)
REMARK    1  A    between atoms: C_2  and  C_3 
REMARK    2  A    between atoms: C_3  and  O_6 
REMARK    3  A    between atoms: C_3  and  C_4 
REMARK    4  A    between atoms: C_7  and  O_6 
REMARK    5  A    between atoms: C_9  and  C_10 
REMARK    6  A    between atoms: N_15  and  C_14 
REMARK    7  A    between atoms: N_20  and  C_19 
REMARK       I    between atoms: C_22  and  N_20 
ROOT
ATOM      1  C   LIG d   1      -6.219  93.214 118.275  0.00  0.00     0.161 C 
ATOM      2  C   LIG d   1      -7.060  92.366 117.536  0.00  0.00     0.016 C 
ATOM      3  C   LIG d   1      -6.606  91.201 116.876  0.00  0.00     0.038 C 
ATOM      4  C   LIG d   1      -5.298  90.720 117.037  0.00  0.00     0.028 C 
ATOM      5  C   LIG d   1      -4.286  91.814 117.362  0.00  0.00    -0.047 C 
ATOM      6  C   LIG d   1      -4.812  92.646 118.554  0.00  0.00     0.091 C 
ENDROOT
BRANCH   1   7
ATOM      7  O   LIG d   1      -6.863  93.586 119.509  0.00  0.00    -0.368 OA
BRANCH   7   8
ATOM      8  C   LIG d   1      -7.306  94.962 119.607  0.00  0.00     0.119 C 
BRANCH   8   9
ATOM      9  C   LIG d   1      -8.824  94.980 119.346  0.00  0.00     0.028 C 
ATOM     10  C   LIG d   1      -9.177  95.594 117.981  0.00  0.00     0.006 C 
ENDBRANCH   8   9
BRANCH   8  11
ATOM     11  C   LIG d   1      -6.693  95.825 118.500  0.00  0.00     0.028 C 
ATOM     12  C   LIG d   1      -5.818  96.964 119.047  0.00  0.00     0.006 C 
ENDBRANCH   8  11
ENDBRANCH   7   8
ENDBRANCH   1   7
BRANCH   6  13
ATOM     13  N   LIG d   1      -3.922  93.789 118.883  0.00  0.00    -0.311 N 
ATOM     14  C   LIG d   1      -2.952  93.726 119.794  0.00  0.00     0.210 C 
ATOM     15  C   LIG d   1      -2.165  95.025 119.993  0.00  0.00     0.109 C 
ATOM     16  O   LIG d   1      -2.648  92.707 120.433  0.00  0.00    -0.276 OA
ATOM     17  H   LIG d   1      -4.079  94.646 118.389  0.00  0.00     0.149 HD
ENDBRANCH   6  13
BRANCH   5  18
ATOM     18  N   LIG d   1      -2.994  91.158 117.640  0.00  0.00     0.381 N 
ATOM     19  H   LIG d   1      -2.906  90.334 117.080  0.00  0.00    -0.090 HD
ATOM     20  H   LIG d   1      -2.969  90.886 118.607  0.00  0.00    -0.090 HD
ATOM     21  H   LIG d   1      -2.245  91.784 117.443  0.00  0.00    -0.090 HD
ENDBRANCH   5  18
BRANCH   3  22
ATOM     22  C   LIG d   1      -7.454  90.525 116.011  0.00  0.00     0.382 C 
ATOM     23  O   LIG d   1      -8.379  91.143 115.431  0.00  0.00    -0.241 OA
ATOM     24  O   LIG d   1      -7.333  89.298 115.839  0.00  0.00    -0.241 OA
ENDBRANCH   3  22
TORSDOF 7
ENDMDL
MODEL 2
REMARK VINA RESULT:      -5.1      2.118      4.731
REMARK  7 active torsions:
REMARK  status: ('A' for Active; 'I' for Inactive)
REMARK    1  A    between atoms: C_2  and  C_3 
REMARK    2  A    between atoms: C_3  and  O_6 
REMARK    3  A    between atoms: C_3  and  C_4 
REMARK    4  A    between atoms: C_7  and  O_6 
REMARK    5  A    between atoms: C_9  and  C_10 
REMARK    6  A    between atoms: N_15  and  C_14 
REMARK    7  A    between atoms: N_20  and  C_19 
REMARK       I    between atoms: C_22  and  N_20 
ROOT
ATOM      1  C   LIG d   1      -4.519  91.561 118.385  0.00  0.00     0.161 C 
ATOM      2  C   LIG d   1      -5.289  90.889 117.422  0.00  0.00     0.016 C 
ATOM      3  C   LIG d   1      -6.452  91.437 116.834  0.00  0.00     0.038 C 
ATOM      4  C   LIG d   1      -6.841  92.766 117.061  0.00  0.00     0.028 C 
ATOM      5  C   LIG d   1      -6.382  93.310 118.410  0.00  0.00    -0.047 C 
ATOM      6  C   LIG d   1      -4.865  93.054 118.563  0.00  0.00     0.091 C 
ENDROOT
BRANCH   1   7
ATOM      7  O   LIG d   1      -3.118  91.403 118.087  0.00  0.00    -0.368 OA
BRANCH   7   8
ATOM      8  C   LIG d   1      -2.350  90.615 119.029  0.00  0.00     0.119 C 
BRANCH   8   9
ATOM      9  C   LIG d   1      -1.236  91.519 119.591  0.00  0.00     0.028 C 
ATOM     10  C   LIG d   1      -0.938  92.719 118.676  0.00  0.00     0.006 C 
ENDBRANCH   8   9
BRANCH   8  11
ATOM     11  C   LIG d   1      -1.623  89.462 118.330  0.00  0.00     0.028 C 
ATOM     12  C   LIG d   1      -2.322  88.108 118.528  0.00  0.00     0.006 C 
ENDBRANCH   8  11
ENDBRANCH   7   8
ENDBRANCH   1   7
BRANCH   6  13
ATOM     13  N   LIG d   1      -4.350  93.480 119.890  0.00  0.00    -0.311 N 
ATOM     14  C   LIG d   1      -3.788  94.667 120.112  0.00  0.00     0.210 C 
ATOM     15  C   LIG d   1      -3.306  94.896 121.548  0.00  0.00     0.109 C 
ATOM     16  O   LIG d   1      -3.672  95.564 119.264  0.00  0.00    -0.276 OA
ATOM     17  H   LIG d   1      -4.432  92.825 120.643  0.00  0.00     0.149 HD
ENDBRANCH   6  13
BRANCH   5  18
ATOM     18  N   LIG d   1      -6.734  94.741 118.457  0.00  0.00     0.381 N 
ATOM     19  H   LIG d   1      -7.482  94.885 119.105  0.00  0.00    -0.090 HD
ATOM     20  H   LIG d   1      -7.047  95.029 117.546  0.00  0.00    -0.090 HD
ATOM     21  H   LIG d   1      -5.941  95.279 118.729  0.00  0.00    -0.090 HD
ENDBRANCH   5  18
BRANCH   3  22
ATOM     22  C   LIG d   1      -7.262  90.640 116.040  0.00  0.00     0.382 C 
ATOM     23  O   LIG d   1      -6.904  89.473 115.751  0.00  0.00    -0.241 OA
ATOM     24  O   LIG d   1      -8.325  91.089 115.571  0.00  0.00    -0.241 OA
ENDBRANCH   3  22
TORSDOF 7
ENDMDL
MODEL 3
REMARK VINA RESULT:      -5.0      2.033      4.215
REMARK  7 active torsions:
REMARK  status: ('A' for Active; 'I' for Inactive)
REMARK    1  A    between atoms: C_2  and  C_3 
REMARK    2  A    between atoms: C_3  and  O_6 
REMARK    3  A    between atoms: C_3  and  C_4 
REMARK    4  A    between atoms: C_7  and  O_6 
REMARK    5  A    between atoms: C_9  and  C_10 
REMARK    6  A    between atoms: N_15  and  C_14 
REMARK    7  A    between atoms: N_20  and  C_19 
REMARK       I    between atoms: C_22  and  N_20 
ROOT
ATOM      1  C   LIG d   1      -5.382  92.545 119.229  0.00  0.00     0.161 C 
ATOM      2  C   LIG d   1      -5.687  91.516 118.323  0.00  0.00     0.016 C 
ATOM      3  C   LIG d   1      -6.611  91.663 117.262  0.00  0.00     0.038 C 
ATOM      4  C   LIG d   1      -7.184  92.903 116.944  0.00  0.00     0.028 C 
ATOM      5  C   LIG d   1      -7.291  93.845 118.138  0.00  0.00    -0.047 C 
ATOM      6  C   LIG d   1      -5.912  93.938 118.830  0.00  0.00     0.091 C 
ENDROOT
BRANCH   1   7
ATOM      7  O   LIG d   1      -3.958  92.595 119.449  0.00  0.00    -0.368 OA
BRANCH   7   8
ATOM      8  C   LIG d   1      -3.126  92.226 118.323  0.00  0.00     0.119 C 
BRANCH   8   9
ATOM      9  C   LIG d   1      -2.115  91.173 118.819  0.00  0.00     0.028 C 
ATOM     10  C   LIG d   1      -2.433  89.762 118.296  0.00  0.00     0.006 C 
ENDBRANCH   8   9
BRANCH   8  11
ATOM     11  C   LIG d   1      -2.278  93.408 117.844  0.00  0.00     0.028 C 
ATOM     12  C   LIG d   1      -2.253  94.569 118.851  0.00  0.00     0.006 C 
ENDBRANCH   8  11
ENDBRANCH   7   8
ENDBRANCH   1   7
BRANCH   6  13
ATOM     13  N   LIG d   1      -5.949  94.774 120.059  0.00  0.00    -0.311 N 
ATOM     14  C   LIG d   1      -5.625  96.065 120.077  0.00  0.00     0.210 C 
ATOM     15  C   LIG d   1      -5.712  96.735 121.451  0.00  0.00     0.109 C 
ATOM     16  O   LIG d   1      -5.303  96.728 119.079  0.00  0.00    -0.276 OA
ATOM     17  H   LIG d   1      -6.229  94.324 120.908  0.00  0.00     0.149 HD
ENDBRANCH   6  13
BRANCH   5  18
ATOM     18  N   LIG d   1      -7.775  95.146 117.638  0.00  0.00     0.381 N 
ATOM     19  H   LIG d   1      -8.213  95.653 118.381  0.00  0.00    -0.090 HD
ATOM     20  H   LIG d   1      -8.460  94.984 116.920  0.00  0.00    -0.090 HD
ATOM     21  H   LIG d   1      -7.015  95.674 117.268  0.00  0.00    -0.090 HD
ENDBRANCH   5  18
BRANCH   3  22
ATOM     22  C   LIG d   1      -7.002  90.550 116.533  0.00  0.00     0.382 C 
ATOM     23  O   LIG d   1      -8.199  90.175 116.555  0.00  0.00    -0.241 OA
ATOM     24  O   LIG d   1      -6.164  89.892 115.888  0.00  0.00    -0.241 OA
ENDBRANCH   3  22
TORSDOF 7
ENDMDL
MODEL 4
REMARK VINA RESULT:      -4.8      1.019      1.842
REMARK  7 active torsions:
REMARK  status: ('A' for Active; 'I' for Inactive)
REMARK    1  A    between atoms: C_2  and  C_3 
REMARK    2  A    between atoms: C_3  and  O_6 
REMARK    3  A    between atoms: C_3  and  C_4 
REMARK    4  A    between atoms: C_7  and  O_6 
REMARK    5  A    between atoms: C_9  and  C_10 
REMARK    6  A    between atoms: N_15  and  C_14 
REMARK    7  A    between atoms: N_20  and  C_19 
REMARK       I    between atoms: C_22  and  N_20 
ROOT
ATOM      1  C   LIG d   1      -5.915  93.194 118.748  0.00  0.00     0.161 C 
ATOM      2  C   LIG d   1      -6.748  92.397 117.945  0.00  0.00     0.016 C 
ATOM      3  C   LIG d   1      -6.270  91.344 117.132  0.00  0.00     0.038 C 
ATOM      4  C   LIG d   1      -4.935  90.916 117.183  0.00  0.00     0.028 C 
ATOM      5  C   LIG d   1      -3.962  92.014 117.599  0.00  0.00    -0.047 C 
ATOM      6  C   LIG d   1      -4.472  92.670 118.902  0.00  0.00     0.091 C 
ENDROOT
BRANCH   1   7
ATOM      7  O   LIG d   1      -6.521  93.383 120.042  0.00  0.00    -0.368 OA
BRANCH   7   8
ATOM      8  C   LIG d   1      -7.144  94.671 120.272  0.00  0.00     0.119 C 
BRANCH   8   9
ATOM      9  C   LIG d   1      -6.178  95.504 121.137  0.00  0.00     0.028 C 
ATOM     10  C   LIG d   1      -6.172  96.991 120.743  0.00  0.00     0.006 C 
ENDBRANCH   8   9
BRANCH   8  11
ATOM     11  C   LIG d   1      -8.419  94.531 121.108  0.00  0.00     0.028 C 
ATOM     12  C   LIG d   1      -9.688  94.428 120.247  0.00  0.00     0.006 C 
ENDBRANCH   8  11
ENDBRANCH   7   8
ENDBRANCH   1   7
BRANCH   6  13
ATOM     13  N   LIG d   1      -3.623  93.811 119.333  0.00  0.00    -0.311 N 
ATOM     14  C   LIG d   1      -2.655  93.702 120.242  0.00  0.00     0.210 C 
ATOM     15  C   LIG d   1      -1.914  95.006 120.555  0.00  0.00     0.109 C 
ATOM     16  O   LIG d   1      -2.320  92.644 120.795  0.00  0.00    -0.276 OA
ATOM     17  H   LIG d   1      -3.806  94.700 118.912  0.00  0.00     0.149 HD
ENDBRANCH   6  13
BRANCH   5  18
ATOM     18  N   LIG d   1      -2.630  91.397 117.745  0.00  0.00     0.381 N 
ATOM     19  H   LIG d   1      -1.970  92.084 118.052  0.00  0.00    -0.090 HD
ATOM     20  H   LIG d   1      -2.332  91.050 116.851  0.00  0.00    -0.090 HD
ATOM     21  H   LIG d   1      -2.671  90.649 118.402  0.00  0.00    -0.090 HD
ENDBRANCH   5  18
BRANCH   3  22
ATOM     22  C   LIG d   1      -7.123  90.734 116.225  0.00  0.00     0.382 C 
ATOM     23  O   LIG d   1      -8.114  91.359 115.778  0.00  0.00    -0.241 OA
ATOM     24  O   LIG d   1      -6.939  89.550 115.883  0.00  0.00    -0.241 OA
ENDBRANCH   3  22
TORSDOF 7
ENDMDL
MODEL 5
REMARK VINA RESULT:      -4.7      2.457      4.232
REMARK  7 active torsions:
REMARK  status: ('A' for Active; 'I' for Inactive)
REMARK    1  A    between atoms: C_2  and  C_3 
REMARK    2  A    between atoms: C_3  and  O_6 
REMARK    3  A    between atoms: C_3  and  C_4 
REMARK    4  A    between atoms: C_7  and  O_6 
REMARK    5  A    between atoms: C_9  and  C_10 
REMARK    6  A    between atoms: N_15  and  C_14 
REMARK    7  A    between atoms: N_20  and  C_19 
REMARK       I    between atoms: C_22  and  N_20 
ROOT
ATOM      1  C   LIG d   1      -5.418  93.036 119.227  0.00  0.00     0.161 C 
ATOM      2  C   LIG d   1      -4.304  92.211 118.999  0.00  0.00     0.016 C 
ATOM      3  C   LIG d   1      -4.273  91.201 118.010  0.00  0.00     0.038 C 
ATOM      4  C   LIG d   1      -5.307  91.047 117.075  0.00  0.00     0.028 C 
ATOM      5  C   LIG d   1      -6.663  91.523 117.587  0.00  0.00    -0.047 C 
ATOM      6  C   LIG d   1      -6.514  92.957 118.143  0.00  0.00     0.091 C 
ENDROOT
BRANCH   1   7
ATOM      7  O   LIG d   1      -4.987  94.400 119.406  0.00  0.00    -0.368 OA
BRANCH   7   8
ATOM      8  C   LIG d   1      -4.472  94.739 120.716  0.00  0.00     0.119 C 
BRANCH   8   9
ATOM      9  C   LIG d   1      -5.565  95.537 121.452  0.00  0.00     0.028 C 
ATOM     10  C   LIG d   1      -5.998  96.793 120.676  0.00  0.00     0.006 C 
ENDBRANCH   8   9
BRANCH   8  11
ATOM     11  C   LIG d   1      -3.275  95.689 120.616  0.00  0.00     0.028 C 
ATOM     12  C   LIG d   1      -2.641  95.703 119.215  0.00  0.00     0.006 C 
ENDBRANCH   8  11
ENDBRANCH   7   8
ENDBRANCH   1   7
BRANCH   6  13
ATOM     13  N   LIG d   1      -7.775  93.467 118.741  0.00  0.00    -0.311 N 
ATOM     14  C   LIG d   1      -8.236  94.700 118.539  0.00  0.00     0.210 C 
ATOM     15  C   LIG d   1      -9.544  95.028 119.265  0.00  0.00     0.109 C 
ATOM     16  O   LIG d   1      -7.703  95.542 117.801  0.00  0.00    -0.276 OA
ATOM     17  H   LIG d   1      -8.288  92.839 119.329  0.00  0.00     0.149 HD
ENDBRANCH   6  13
BRANCH   5  18
ATOM     18  N   LIG d   1      -7.619  91.433 116.467  0.00  0.00     0.381 N 
ATOM     19  H   LIG d   1      -7.330  92.040 115.726  0.00  0.00    -0.090 HD
ATOM     20  H   LIG d   1      -8.523  91.733 116.787  0.00  0.00    -0.090 HD
ATOM     21  H   LIG d   1      -7.670  90.495 116.137  0.00  0.00    -0.090 HD
ENDBRANCH   5  18
BRANCH   3  22
ATOM     22  C   LIG d   1      -3.215  90.305 117.976  0.00  0.00     0.382 C 
ATOM     23  O   LIG d   1      -3.435  89.072 118.056  0.00  0.00    -0.241 OA
ATOM     24  O   LIG d   1      -2.041  90.716 117.910  0.00  0.00    -0.241 OA
ENDBRANCH   3  22
TORSDOF 7
ENDMDL
MODEL 6
REMARK VINA RESULT:      -4.5      2.427      4.270
REMARK  7 active torsions:
REMARK  status: ('A' for Active; 'I' for Inactive)
REMARK    1  A    between atoms: C_2  and  C_3 
REMARK    2  A    between atoms: C_3  and  O_6 
REMARK    3  A    between atoms: C_3  and  C_4 
REMARK    4  A    between atoms: C_7  and  O_6 
REMARK    5  A    between atoms: C_9  and  C_10 
REMARK    6  A    between atoms: N_15  and  C_14 
REMARK    7  A    between atoms: N_20  and  C_19 
REMARK       I    between atoms: C_22  and  N_20 
ROOT
ATOM      1  C   LIG d   1      -4.430  93.369 118.979  0.00  0.00     0.161 C 
ATOM      2  C   LIG d   1      -5.612  94.129 118.963  0.00  0.00     0.016 C 
ATOM      3  C   LIG d   1      -6.735  93.804 118.168  0.00  0.00     0.038 C 
ATOM      4  C   LIG d   1      -6.810  92.604 117.445  0.00  0.00     0.028 C 
ATOM      5  C   LIG d   1      -5.446  92.058 117.035  0.00  0.00    -0.047 C 
ATOM      6  C   LIG d   1      -4.535  91.996 118.282  0.00  0.00     0.091 C 
ENDROOT
BRANCH   1   7
ATOM      7  O   LIG d   1      -3.972  93.208 120.336  0.00  0.00    -0.368 OA
BRANCH   7   8
ATOM      8  C   LIG d   1      -4.538  92.097 121.073  0.00  0.00     0.119 C 
BRANCH   8   9
ATOM      9  C   LIG d   1      -5.299  92.681 122.279  0.00  0.00     0.028 C 
ATOM     10  C   LIG d   1      -6.822  92.507 122.152  0.00  0.00     0.006 C 
ENDBRANCH   8   9
BRANCH   8  11
ATOM     11  C   LIG d   1      -3.443  91.212 121.675  0.00  0.00     0.028 C 
ATOM     12  C   LIG d   1      -2.027  91.726 121.372  0.00  0.00     0.006 C 
ENDBRANCH   8  11
ENDBRANCH   7   8
ENDBRANCH   1   7
BRANCH   6  13
ATOM     13  N   LIG d   1      -3.155  91.552 117.954  0.00  0.00    -0.311 N 
ATOM     14  C   LIG d   1      -2.750  90.287 118.050  0.00  0.00     0.210 C 
ATOM     15  C   LIG d   1      -1.282  90.049 117.683  0.00  0.00     0.109 C 
ATOM     16  O   LIG d   1      -3.475  89.334 118.374  0.00  0.00    -0.276 OA
ATOM     17  H   LIG d   1      -2.509  92.255 117.653  0.00  0.00     0.149 HD
ENDBRANCH   6  13
BRANCH   5  18
ATOM     18  N   LIG d   1      -5.664  90.739 116.412  0.00  0.00     0.381 N 
ATOM     19  H   LIG d   1      -6.467  90.301 116.817  0.00  0.00    -0.090 HD
ATOM     20  H   LIG d   1      -4.864  90.158 116.593  0.00  0.00    -0.090 HD
ATOM     21  H   LIG d   1      -5.792  90.843 115.430  0.00  0.00    -0.090 HD
ENDBRANCH   5  18
BRANCH   3  22
ATOM     22  C   LIG d   1      -7.784  94.705 118.060  0.00  0.00     0.382 C 
ATOM     23  O   LIG d   1      -7.557  95.938 118.095  0.00  0.00    -0.241 OA
ATOM     24  O   LIG d   1      -8.958  94.299 117.972  0.00  0.00    -0.241 OA
ENDBRANCH   3  22
TORSDOF 7
ENDMDL
MODEL 7
REMARK VINA RESULT:      -4.5      1.521      4.643
REMARK  7 active torsions:
REMARK  status: ('A' for Active; 'I' for Inactive)
REMARK    1  A    between atoms: C_2  and  C_3 
REMARK    2  A    between atoms: C_3  and  O_6 
REMARK    3  A    between atoms: C_3  and  C_4 
REMARK    4  A    between atoms: C_7  and  O_6 
REMARK    5  A    between atoms: C_9  and  C_10 
REMARK    6  A    between atoms: N_15  and  C_14 
REMARK    7  A    between atoms: N_20  and  C_19 
REMARK       I    between atoms: C_22  and  N_20 
ROOT
ATOM      1  C   LIG d   1      -5.652  92.874 118.950  0.00  0.00     0.161 C 
ATOM      2  C   LIG d   1      -4.740  93.495 119.821  0.00  0.00     0.016 C 
ATOM      3  C   LIG d   1      -3.372  93.144 119.894  0.00  0.00     0.038 C 
ATOM      4  C   LIG d   1      -2.787  92.246 118.988  0.00  0.00     0.028 C 
ATOM      5  C   LIG d   1      -3.771  91.225 118.426  0.00  0.00    -0.047 C 
ATOM      6  C   LIG d   1      -5.009  91.971 117.877  0.00  0.00     0.091 C 
ENDROOT
BRANCH   1   7
ATOM      7  O   LIG d   1      -6.490  93.870 118.331  0.00  0.00    -0.368 OA
BRANCH   7   8
ATOM      8  C   LIG d   1      -6.930  94.954 119.185  0.00  0.00     0.119 C 
BRANCH   8   9
ATOM      9  C   LIG d   1      -8.465  94.867 119.290  0.00  0.00     0.028 C 
ATOM     10  C   LIG d   1      -9.175  95.842 118.337  0.00  0.00     0.006 C 
ENDBRANCH   8   9
BRANCH   8  11
ATOM     11  C   LIG d   1      -6.644  96.317 118.548  0.00  0.00     0.028 C 
ATOM     12  C   LIG d   1      -5.430  97.023 119.171  0.00  0.00     0.006 C 
ENDBRANCH   8  11
ENDBRANCH   7   8
ENDBRANCH   1   7
BRANCH   6  13
ATOM     13  N   LIG d   1      -6.059  91.041 117.385  0.00  0.00    -0.311 N 
ATOM     14  C   LIG d   1      -6.712  91.215 116.237  0.00  0.00     0.210 C 
ATOM     15  C   LIG d   1      -7.769  90.150 115.928  0.00  0.00     0.109 C 
ATOM     16  O   LIG d   1      -6.494  92.131 115.431  0.00  0.00    -0.276 OA
ATOM     17  H   LIG d   1      -6.277  90.253 117.962  0.00  0.00     0.149 HD
ENDBRANCH   6  13
BRANCH   5  18
ATOM     18  N   LIG d   1      -3.063  90.444 117.395  0.00  0.00     0.381 N 
ATOM     19  H   LIG d   1      -2.897  89.515 117.729  0.00  0.00    -0.090 HD
ATOM     20  H   LIG d   1      -2.175  90.877 117.212  0.00  0.00    -0.090 HD
ATOM     21  H   LIG d   1      -3.604  90.412 116.559  0.00  0.00    -0.090 HD
ENDBRANCH   5  18
BRANCH   3  22
ATOM     22  C   LIG d   1      -2.582  93.664 120.908  0.00  0.00     0.382 C 
ATOM     23  O   LIG d   1      -1.592  94.381 120.626  0.00  0.00    -0.241 OA
ATOM     24  O   LIG d   1      -2.822  93.389 122.099  0.00  0.00    -0.241 OA
ENDBRANCH   3  22
TORSDOF 7
ENDMDL
MODEL 8
REMARK VINA RESULT:      -4.4      5.106      8.713
REMARK  7 active torsions:
REMARK  status: ('A' for Active; 'I' for Inactive)
REMARK    1  A    between atoms: C_2  and  C_3 
REMARK    2  A    between atoms: C_3  and  O_6 
REMARK    3  A    between atoms: C_3  and  C_4 
REMARK    4  A    between atoms: C_7  and  O_6 
REMARK    5  A    between atoms: C_9  and  C_10 
REMARK    6  A    between atoms: N_15  and  C_14 
REMARK    7  A    between atoms: N_20  and  C_19 
REMARK       I    between atoms: C_22  and  N_20 
ROOT
ATOM      1  C   LIG d   1       0.098  90.515 117.111  0.00  0.00     0.161 C 
ATOM      2  C   LIG d   1       1.459  90.835 117.248  0.00  0.00     0.016 C 
ATOM      3  C   LIG d   1       1.940  91.823 118.137  0.00  0.00     0.038 C 
ATOM      4  C   LIG d   1       1.101  92.457 119.066  0.00  0.00     0.028 C 
ATOM      5  C   LIG d   1      -0.354  92.529 118.617  0.00  0.00    -0.047 C 
ATOM      6  C   LIG d   1      -0.820  91.117 118.195  0.00  0.00     0.091 C 
ENDROOT
BRANCH   1   7
ATOM      7  O   LIG d   1      -0.064  89.084 117.055  0.00  0.00    -0.368 OA
BRANCH   7   8
ATOM      8  C   LIG d   1      -0.045  88.391 118.327  0.00  0.00     0.119 C 
BRANCH   8   9
ATOM      9  C   LIG d   1       1.040  87.299 118.243  0.00  0.00     0.028 C 
ATOM     10  C   LIG d   1       1.416  86.956 116.792  0.00  0.00     0.006 C 
ENDBRANCH   8   9
BRANCH   8  11
ATOM     11  C   LIG d   1      -1.357  87.640 118.572  0.00  0.00     0.028 C 
ATOM     12  C   LIG d   1      -1.169  86.372 119.420  0.00  0.00     0.006 C 
ENDBRANCH   8  11
ENDBRANCH   7   8
ENDBRANCH   1   7
BRANCH   6  13
ATOM     13  N   LIG d   1      -2.208  91.114 117.662  0.00  0.00    -0.311 N 
ATOM     14  C   LIG d   1      -3.280  90.859 118.410  0.00  0.00     0.210 C 
ATOM     15  C   LIG d   1      -4.614  90.887 117.658  0.00  0.00     0.109 C 
ATOM     16  O   LIG d   1      -3.255  90.643 119.631  0.00  0.00    -0.276 OA
ATOM     17  H   LIG d   1      -2.322  91.310 116.687  0.00  0.00     0.149 HD
ENDBRANCH   6  13
BRANCH   5  18
ATOM     18  N   LIG d   1      -1.138  93.087 119.734  0.00  0.00     0.381 N 
ATOM     19  H   LIG d   1      -1.757  92.389 120.096  0.00  0.00    -0.090 HD
ATOM     20  H   LIG d   1      -1.693  93.853 119.392  0.00  0.00    -0.090 HD
ATOM     21  H   LIG d   1      -0.527  93.406 120.454  0.00  0.00    -0.090 HD
ENDBRANCH   5  18
BRANCH   3  22
ATOM     22  C   LIG d   1       3.269  92.215 118.076  0.00  0.00     0.382 C 
ATOM     23  O   LIG d   1       3.881  92.525 119.126  0.00  0.00    -0.241 OA
ATOM     24  O   LIG d   1       3.851  92.304 116.978  0.00  0.00    -0.241 OA
ENDBRANCH   3  22
TORSDOF 7
ENDMDL
MODEL 9
REMARK VINA RESULT:      -4.3      2.243      4.571
REMARK  7 active torsions:
REMARK  status: ('A' for Active; 'I' for Inactive)
REMARK    1  A    between atoms: C_2  and  C_3 
REMARK    2  A    between atoms: C_3  and  O_6 
REMARK    3  A    between atoms: C_3  and  C_4 
REMARK    4  A    between atoms: C_7  and  O_6 
REMARK    5  A    between atoms: C_9  and  C_10 
REMARK    6  A    between atoms: N_15  and  C_14 
REMARK    7  A    between atoms: N_20  and  C_19 
REMARK       I    between atoms: C_22  and  N_20 
ROOT
ATOM      1  C   LIG d   1      -5.161  93.405 119.207  0.00  0.00     0.161 C 
ATOM      2  C   LIG d   1      -4.900  92.369 118.295  0.00  0.00     0.016 C 
ATOM      3  C   LIG d   1      -5.769  92.030 117.232  0.00  0.00     0.038 C 
ATOM      4  C   LIG d   1      -6.893  92.809 116.917  0.00  0.00     0.028 C 
ATOM      5  C   LIG d   1      -7.466  93.559 118.114  0.00  0.00    -0.047 C 
ATOM      6  C   LIG d   1      -6.326  94.336 118.812  0.00  0.00     0.091 C 
ENDROOT
BRANCH   1   7
ATOM      7  O   LIG d   1      -3.961  94.171 119.432  0.00  0.00    -0.368 OA
BRANCH   7   8
ATOM      8  C   LIG d   1      -2.861  93.465 120.056  0.00  0.00     0.119 C 
BRANCH   8   9
ATOM      9  C   LIG d   1      -2.633  94.096 121.443  0.00  0.00     0.028 C 
ATOM     10  C   LIG d   1      -3.153  93.208 122.585  0.00  0.00     0.006 C 
ENDBRANCH   8   9
BRANCH   8  11
ATOM     11  C   LIG d   1      -1.553  93.683 119.291  0.00  0.00     0.028 C 
ATOM     12  C   LIG d   1      -1.147  92.465 118.444  0.00  0.00     0.006 C 
ENDBRANCH   8  11
ENDBRANCH   7   8
ENDBRANCH   1   7
BRANCH   6  13
ATOM     13  N   LIG d   1      -6.784  95.031 120.043  0.00  0.00    -0.311 N 
ATOM     14  C   LIG d   1      -7.188  96.300 120.062  0.00  0.00     0.210 C 
ATOM     15  C   LIG d   1      -7.600  96.827 121.440  0.00  0.00     0.109 C 
ATOM     16  O   LIG d   1      -7.274  97.030 119.063  0.00  0.00    -0.276 OA
ATOM     17  H   LIG d   1      -6.776  94.503 120.894  0.00  0.00     0.149 HD
ENDBRANCH   6  13
BRANCH   5  18
ATOM     18  N   LIG d   1      -8.543  94.435 117.618  0.00  0.00     0.381 N 
ATOM     19  H   LIG d   1      -8.594  95.261 118.179  0.00  0.00    -0.090 HD
ATOM     20  H   LIG d   1      -9.419  93.948 117.693  0.00  0.00    -0.090 HD
ATOM     21  H   LIG d   1      -8.372  94.681 116.667  0.00  0.00    -0.090 HD
ENDBRANCH   5  18
BRANCH   3  22
ATOM     22  C   LIG d   1      -5.539  90.878 116.497  0.00  0.00     0.382 C 
ATOM     23  O   LIG d   1      -6.176  90.674 115.435  0.00  0.00    -0.241 OA
ATOM     24  O   LIG d   1      -4.735  90.018 116.904  0.00  0.00    -0.241 OA
ENDBRANCH   3  22
TORSDOF 7
ENDMDL
