MODEL 1
REMARK VINA RESULT:      -5.3      0.000      0.000
REMARK  7 active torsions:
REMARK  status: ('A' for Active; 'I' for Inactive)
REMARK    1  A    between atoms: C_2  and  C_3 
REMARK    2  A    between atoms: C_3  and  O_6 
REMARK    3  A    between atoms: C_3  and  C_4 
REMARK    4  A    between atoms: C_7  and  O_6 
REMARK    5  A    between atoms: C_9  and  C_10 
REMARK    6  A    between atoms: N_15  and  C_14 
REMARK    7  A    between atoms: N_20  and  C_19 
REMARK       I    between atoms: C_22  and  N_20 
ROOT
ATOM      1  C   LIG d   1      -5.097  93.707 116.905  0.00  0.00     0.161 C 
ATOM      2  C   LIG d   1      -6.288  93.027 116.603  0.00  0.00     0.016 C 
ATOM      3  C   LIG d   1      -6.365  91.624 116.443  0.00  0.00     0.038 C 
ATOM      4  C   LIG d   1      -5.276  90.785 116.727  0.00  0.00     0.028 C 
ATOM      5  C   LIG d   1      -3.924  91.466 116.544  0.00  0.00    -0.047 C 
ATOM      6  C   LIG d   1      -3.923  92.799 117.327  0.00  0.00     0.091 C 
ENDROOT
BRANCH   1   7
ATOM      7  O   LIG d   1      -5.347  94.705 117.915  0.00  0.00    -0.368 OA
BRANCH   7   8
ATOM      8  C   LIG d   1      -6.465  94.449 118.800  0.00  0.00     0.119 C 
BRANCH   8   9
ATOM      9  C   LIG d   1      -7.246  95.769 118.952  0.00  0.00     0.028 C 
ATOM     10  C   LIG d   1      -6.713  96.876 118.026  0.00  0.00     0.006 C 
ENDBRANCH   8   9
BRANCH   8  11
ATOM     11  C   LIG d   1      -5.988  94.096 120.212  0.00  0.00     0.028 C 
ATOM     12  C   LIG d   1      -5.848  92.581 120.431  0.00  0.00     0.006 C 
ENDBRANCH   8  11
ENDBRANCH   7   8
ENDBRANCH   1   7
BRANCH   6  13
ATOM     13  N   LIG d   1      -2.667  93.569 117.133  0.00  0.00    -0.311 N 
ATOM     14  C   LIG d   1      -1.614  93.469 117.943  0.00  0.00     0.210 C 
ATOM     15  C   LIG d   1      -0.428  94.366 117.574  0.00  0.00     0.109 C 
ATOM     16  O   LIG d   1      -1.537  92.699 118.912  0.00  0.00    -0.276 OA
ATOM     17  H   LIG d   1      -2.631  94.195 116.353  0.00  0.00     0.149 HD
ENDBRANCH   6  13
BRANCH   5  18
ATOM     18  N   LIG d   1      -2.886  90.525 117.004  0.00  0.00     0.381 N 
ATOM     19  H   LIG d   1      -3.176  89.584 116.824  0.00  0.00    -0.090 HD
ATOM     20  H   LIG d   1      -2.765  90.632 117.996  0.00  0.00    -0.090 HD
ATOM     21  H   LIG d   1      -2.026  90.710 116.536  0.00  0.00    -0.090 HD
ENDBRANCH   5  18
BRANCH   3  22
ATOM     22  C   LIG d   1      -7.530  91.050 115.958  0.00  0.00     0.382 C 
ATOM     23  O   LIG d   1      -8.510  91.775 115.661  0.00  0.00    -0.241 OA
ATOM     24  O   LIG d   1      -7.628  89.812 115.854  0.00  0.00    -0.241 OA
ENDBRANCH   3  22
TORSDOF 7
ENDMDL
MODEL 2
REMARK VINA RESULT:      -5.2      2.248      4.109
REMARK  7 active torsions:
REMARK  status: ('A' for Active; 'I' for Inactive)
REMARK    1  A    between atoms: C_2  and  C_3 
REMARK    2  A    between atoms: C_3  and  O_6 
REMARK    3  A    between atoms: C_3  and  C_4 
REMARK    4  A    between atoms: C_7  and  O_6 
REMARK    5  A    between atoms: C_9  and  C_10 
REMARK    6  A    between atoms: N_15  and  C_14 
REMARK    7  A    between atoms: N_20  and  C_19 
REMARK       I    between atoms: C_22  and  N_20 
ROOT
ATOM      1  C   LIG d   1      -4.489  92.150 117.390  0.00  0.00     0.161 C 
ATOM      2  C   LIG d   1      -5.448  91.390 116.698  0.00  0.00     0.016 C 
ATOM      3  C   LIG d   1      -6.654  91.930 116.195  0.00  0.00     0.038 C 
ATOM      4  C   LIG d   1      -6.915  93.308 116.217  0.00  0.00     0.028 C 
ATOM      5  C   LIG d   1      -6.208  94.041 117.353  0.00  0.00    -0.047 C 
ATOM      6  C   LIG d   1      -4.706  93.676 117.326  0.00  0.00     0.091 C 
ENDROOT
BRANCH   1   7
ATOM      7  O   LIG d   1      -3.168  91.811 116.923  0.00  0.00    -0.368 OA
BRANCH   7   8
ATOM      8  C   LIG d   1      -2.505  90.728 117.620  0.00  0.00     0.119 C 
BRANCH   8   9
ATOM      9  C   LIG d   1      -2.856  90.854 119.115  0.00  0.00     0.028 C 
ATOM     10  C   LIG d   1      -3.373  89.534 119.710  0.00  0.00     0.006 C 
ENDBRANCH   8   9
BRANCH   8  11
ATOM     11  C   LIG d   1      -0.982  90.869 117.548  0.00  0.00     0.028 C 
ATOM     12  C   LIG d   1      -0.258  89.513 117.512  0.00  0.00     0.006 C 
ENDBRANCH   8  11
ENDBRANCH   7   8
ENDBRANCH   1   7
BRANCH   6  13
ATOM     13  N   LIG d   1      -3.955  94.284 118.455  0.00  0.00    -0.311 N 
ATOM     14  C   LIG d   1      -2.707  94.737 118.347  0.00  0.00     0.210 C 
ATOM     15  C   LIG d   1      -2.111  95.308 119.638  0.00  0.00     0.109 C 
ATOM     16  O   LIG d   1      -2.048  94.750 117.296  0.00  0.00    -0.276 OA
ATOM     17  H   LIG d   1      -4.425  94.342 119.337  0.00  0.00     0.149 HD
ENDBRANCH   6  13
BRANCH   5  18
ATOM     18  N   LIG d   1      -6.456  95.484 117.175  0.00  0.00     0.381 N 
ATOM     19  H   LIG d   1      -5.697  96.008 117.562  0.00  0.00    -0.090 HD
ATOM     20  H   LIG d   1      -7.295  95.733 117.668  0.00  0.00    -0.090 HD
ATOM     21  H   LIG d   1      -6.555  95.696 116.206  0.00  0.00    -0.090 HD
ENDBRANCH   5  18
BRANCH   3  22
ATOM     22  C   LIG d   1      -7.631  91.082 115.698  0.00  0.00     0.382 C 
ATOM     23  O   LIG d   1      -8.773  91.530 115.430  0.00  0.00    -0.241 OA
ATOM     24  O   LIG d   1      -7.400  89.867 115.554  0.00  0.00    -0.241 OA
ENDBRANCH   3  22
TORSDOF 7
ENDMDL
MODEL 3
REMARK VINA RESULT:      -5.2      1.231      1.677
REMARK  7 active torsions:
REMARK  status: ('A' for Active; 'I' for Inactive)
REMARK    1  A    between atoms: C_2  and  C_3 
REMARK    2  A    between atoms: C_3  and  O_6 
REMARK    3  A    between atoms: C_3  and  C_4 
REMARK    4  A    between atoms: C_7  and  O_6 
REMARK    5  A    between atoms: C_9  and  C_10 
REMARK    6  A    between atoms: N_15  and  C_14 
REMARK    7  A    between atoms: N_20  and  C_19 
REMARK       I    between atoms: C_22  and  N_20 
ROOT
ATOM      1  C   LIG d   1      -5.033  93.917 117.133  0.00  0.00     0.161 C 
ATOM      2  C   LIG d   1      -6.373  93.663 116.793  0.00  0.00     0.016 C 
ATOM      3  C   LIG d   1      -6.845  92.393 116.390  0.00  0.00     0.038 C 
ATOM      4  C   LIG d   1      -6.035  91.248 116.445  0.00  0.00     0.028 C 
ATOM      5  C   LIG d   1      -4.548  91.551 116.298  0.00  0.00    -0.047 C 
ATOM      6  C   LIG d   1      -4.159  92.657 117.306  0.00  0.00     0.091 C 
ENDROOT
BRANCH   1   7
ATOM      7  O   LIG d   1      -4.977  94.733 118.320  0.00  0.00    -0.368 OA
BRANCH   7   8
ATOM      8  C   LIG d   1      -5.329  94.076 119.562  0.00  0.00     0.119 C 
BRANCH   8   9
ATOM      9  C   LIG d   1      -6.445  94.906 120.225  0.00  0.00     0.028 C 
ATOM     10  C   LIG d   1      -7.199  94.116 121.308  0.00  0.00     0.006 C 
ENDBRANCH   8   9
BRANCH   8  11
ATOM     11  C   LIG d   1      -4.162  94.099 120.555  0.00  0.00     0.028 C 
ATOM     12  C   LIG d   1      -3.132  95.194 120.238  0.00  0.00     0.006 C 
ENDBRANCH   8  11
ENDBRANCH   7   8
ENDBRANCH   1   7
BRANCH   6  13
ATOM     13  N   LIG d   1      -2.739  93.073 117.171  0.00  0.00    -0.311 N 
ATOM     14  C   LIG d   1      -1.758  92.591 117.932  0.00  0.00     0.210 C 
ATOM     15  C   LIG d   1      -0.370  93.169 117.640  0.00  0.00     0.109 C 
ATOM     16  O   LIG d   1      -1.901  91.716 118.798  0.00  0.00    -0.276 OA
ATOM     17  H   LIG d   1      -2.529  93.757 116.470  0.00  0.00     0.149 HD
ENDBRANCH   6  13
BRANCH   5  18
ATOM     18  N   LIG d   1      -3.813  90.290 116.512  0.00  0.00     0.381 N 
ATOM     19  H   LIG d   1      -3.112  90.183 115.806  0.00  0.00    -0.090 HD
ATOM     20  H   LIG d   1      -4.457  89.522 116.436  0.00  0.00    -0.090 HD
ATOM     21  H   LIG d   1      -3.389  90.291 117.413  0.00  0.00    -0.090 HD
ENDBRANCH   5  18
BRANCH   3  22
ATOM     22  C   LIG d   1      -8.131  92.266 115.888  0.00  0.00     0.382 C 
ATOM     23  O   LIG d   1      -8.921  93.240 115.932  0.00  0.00    -0.241 OA
ATOM     24  O   LIG d   1      -8.527  91.176 115.432  0.00  0.00    -0.241 OA
ENDBRANCH   3  22
TORSDOF 7
ENDMDL
MODEL 4
REMARK VINA RESULT:      -5.0      2.031      3.095
REMARK  7 active torsions:
REMARK  status: ('A' for Active; 'I' for Inactive)
REMARK    1  A    between atoms: C_2  and  C_3 
REMARK    2  A    between atoms: C_3  and  O_6 
REMARK    3  A    between atoms: C_3  and  C_4 
REMARK    4  A    between atoms: C_7  and  O_6 
REMARK    5  A    between atoms: C_9  and  C_10 
REMARK    6  A    between atoms: N_15  and  C_14 
REMARK    7  A    between atoms: N_20  and  C_19 
REMARK       I    between atoms: C_22  and  N_20 
ROOT
ATOM      1  C   LIG d   1      -4.127  92.865 117.652  0.00  0.00     0.161 C 
ATOM      2  C   LIG d   1      -5.474  93.261 117.619  0.00  0.00     0.016 C 
ATOM      3  C   LIG d   1      -6.479  92.546 116.928  0.00  0.00     0.038 C 
ATOM      4  C   LIG d   1      -6.230  91.295 116.343  0.00  0.00     0.028 C 
ATOM      5  C   LIG d   1      -4.778  91.103 115.920  0.00  0.00    -0.047 C 
ATOM      6  C   LIG d   1      -3.857  91.444 117.114  0.00  0.00     0.091 C 
ENDROOT
BRANCH   1   7
ATOM      7  O   LIG d   1      -3.610  92.999 118.991  0.00  0.00    -0.368 OA
BRANCH   7   8
ATOM      8  C   LIG d   1      -2.447  93.850 119.143  0.00  0.00     0.119 C 
BRANCH   8   9
ATOM      9  C   LIG d   1      -2.753  94.853 120.272  0.00  0.00     0.028 C 
ATOM     10  C   LIG d   1      -3.906  95.806 119.915  0.00  0.00     0.006 C 
ENDBRANCH   8   9
BRANCH   8  11
ATOM     11  C   LIG d   1      -2.215  94.705 117.893  0.00  0.00     0.028 C 
ATOM     12  C   LIG d   1      -0.806  94.530 117.305  0.00  0.00     0.006 C 
ENDBRANCH   8  11
ENDBRANCH   7   8
ENDBRANCH   1   7
BRANCH   6  13
ATOM     13  N   LIG d   1      -2.416  91.363 116.759  0.00  0.00    -0.311 N 
ATOM     14  C   LIG d   1      -1.516  90.711 117.494  0.00  0.00     0.210 C 
ATOM     15  C   LIG d   1      -0.081  90.769 116.960  0.00  0.00     0.109 C 
ATOM     16  O   LIG d   1      -1.775  90.063 118.519  0.00  0.00    -0.276 OA
ATOM     17  H   LIG d   1      -2.124  91.834 115.926  0.00  0.00     0.149 HD
ENDBRANCH   6  13
BRANCH   5  18
ATOM     18  N   LIG d   1      -4.630  89.711 115.455  0.00  0.00     0.381 N 
ATOM     19  H   LIG d   1      -3.673  89.530 115.227  0.00  0.00    -0.090 HD
ATOM     20  H   LIG d   1      -5.181  89.585 114.624  0.00  0.00    -0.090 HD
ATOM     21  H   LIG d   1      -4.935  89.080 116.163  0.00  0.00    -0.090 HD
ENDBRANCH   5  18
BRANCH   3  22
ATOM     22  C   LIG d   1      -7.741  93.102 116.782  0.00  0.00     0.382 C 
ATOM     23  O   LIG d   1      -8.417  93.397 117.796  0.00  0.00    -0.241 OA
ATOM     24  O   LIG d   1      -8.229  93.271 115.648  0.00  0.00    -0.241 OA
ENDBRANCH   3  22
TORSDOF 7
ENDMDL
MODEL 5
REMARK VINA RESULT:      -5.0      2.265      4.735
REMARK  7 active torsions:
REMARK  status: ('A' for Active; 'I' for Inactive)
REMARK    1  A    between atoms: C_2  and  C_3 
REMARK    2  A    between atoms: C_3  and  O_6 
REMARK    3  A    between atoms: C_3  and  C_4 
REMARK    4  A    between atoms: C_7  and  O_6 
REMARK    5  A    between atoms: C_9  and  C_10 
REMARK    6  A    between atoms: N_15  and  C_14 
REMARK    7  A    between atoms: N_20  and  C_19 
REMARK       I    between atoms: C_22  and  N_20 
ROOT
ATOM      1  C   LIG d   1      -6.433  93.309 117.622  0.00  0.00     0.161 C 
ATOM      2  C   LIG d   1      -7.689  93.427 118.240  0.00  0.00     0.016 C 
ATOM      3  C   LIG d   1      -8.101  94.577 118.952  0.00  0.00     0.038 C 
ATOM      4  C   LIG d   1      -7.338  95.753 118.966  0.00  0.00     0.028 C 
ATOM      5  C   LIG d   1      -5.844  95.508 118.782  0.00  0.00    -0.047 C 
ATOM      6  C   LIG d   1      -5.630  94.624 117.532  0.00  0.00     0.091 C 
ENDROOT
BRANCH   1   7
ATOM      7  O   LIG d   1      -6.585  92.724 116.313  0.00  0.00    -0.368 OA
BRANCH   7   8
ATOM      8  C   LIG d   1      -6.758  91.286 116.274  0.00  0.00     0.119 C 
BRANCH   8   9
ATOM      9  C   LIG d   1      -5.542  90.694 115.535  0.00  0.00     0.028 C 
ATOM     10  C   LIG d   1      -4.277  90.674 116.410  0.00  0.00     0.006 C 
ENDBRANCH   8   9
BRANCH   8  11
ATOM     11  C   LIG d   1      -7.975  90.895 115.431  0.00  0.00     0.028 C 
ATOM     12  C   LIG d   1      -8.519  89.501 115.782  0.00  0.00     0.006 C 
ENDBRANCH   8  11
ENDBRANCH   7   8
ENDBRANCH   1   7
BRANCH   6  13
ATOM     13  N   LIG d   1      -4.202  94.266 117.328  0.00  0.00    -0.311 N 
ATOM     14  C   LIG d   1      -3.465  93.642 118.245  0.00  0.00     0.210 C 
ATOM     15  C   LIG d   1      -2.010  93.386 117.839  0.00  0.00     0.109 C 
ATOM     16  O   LIG d   1      -3.886  93.248 119.343  0.00  0.00    -0.276 OA
ATOM     17  H   LIG d   1      -3.789  94.521 116.453  0.00  0.00     0.149 HD
ENDBRANCH   6  13
BRANCH   5  18
ATOM     18  N   LIG d   1      -5.186  96.824 118.679  0.00  0.00     0.381 N 
ATOM     19  H   LIG d   1      -4.259  96.712 118.319  0.00  0.00    -0.090 HD
ATOM     20  H   LIG d   1      -5.121  97.229 119.596  0.00  0.00    -0.090 HD
ATOM     21  H   LIG d   1      -5.712  97.422 118.080  0.00  0.00    -0.090 HD
ENDBRANCH   5  18
BRANCH   3  22
ATOM     22  C   LIG d   1      -9.273  94.543 119.693  0.00  0.00     0.382 C 
ATOM     23  O   LIG d   1     -10.093  93.608 119.527  0.00  0.00    -0.241 OA
ATOM     24  O   LIG d   1      -9.540  95.458 120.494  0.00  0.00    -0.241 OA
ENDBRANCH   3  22
TORSDOF 7
ENDMDL
MODEL 6
REMARK VINA RESULT:      -4.5      3.728      7.260
REMARK  7 active torsions:
REMARK  status: ('A' for Active; 'I' for Inactive)
REMARK    1  A    between atoms: C_2  and  C_3 
REMARK    2  A    between atoms: C_3  and  O_6 
REMARK    3  A    between atoms: C_3  and  C_4 
REMARK    4  A    between atoms: C_7  and  O_6 
REMARK    5  A    between atoms: C_9  and  C_10 
REMARK    6  A    between atoms: N_15  and  C_14 
REMARK    7  A    between atoms: N_20  and  C_19 
REMARK       I    between atoms: C_22  and  N_20 
ROOT
ATOM      1  C   LIG d   1      -0.565  90.933 117.024  0.00  0.00     0.161 C 
ATOM      2  C   LIG d   1       0.788  90.573 116.914  0.00  0.00     0.016 C 
ATOM      3  C   LIG d   1       1.855  91.454 117.205  0.00  0.00     0.038 C 
ATOM      4  C   LIG d   1       1.637  92.717 117.776  0.00  0.00     0.028 C 
ATOM      5  C   LIG d   1       0.276  93.311 117.433  0.00  0.00    -0.047 C 
ATOM      6  C   LIG d   1      -0.821  92.269 117.751  0.00  0.00     0.091 C 
ENDROOT
BRANCH   1   7
ATOM      7  O   LIG d   1      -1.304  89.869 117.656  0.00  0.00    -0.368 OA
BRANCH   7   8
ATOM      8  C   LIG d   1      -1.109  89.718 119.084  0.00  0.00     0.119 C 
BRANCH   8   9
ATOM      9  C   LIG d   1      -0.692  88.257 119.342  0.00  0.00     0.028 C 
ATOM     10  C   LIG d   1       0.796  88.128 119.708  0.00  0.00     0.006 C 
ENDBRANCH   8   9
BRANCH   8  11
ATOM     11  C   LIG d   1      -2.422  89.906 119.848  0.00  0.00     0.028 C 
ATOM     12  C   LIG d   1      -3.661  89.740 118.954  0.00  0.00     0.006 C 
ENDBRANCH   8  11
ENDBRANCH   7   8
ENDBRANCH   1   7
BRANCH   6  13
ATOM     13  N   LIG d   1      -2.178  92.738 117.366  0.00  0.00    -0.311 N 
ATOM     14  C   LIG d   1      -3.031  93.298 118.222  0.00  0.00     0.210 C 
ATOM     15  C   LIG d   1      -4.384  93.692 117.622  0.00  0.00     0.109 C 
ATOM     16  O   LIG d   1      -2.783  93.536 119.413  0.00  0.00    -0.276 OA
ATOM     17  H   LIG d   1      -2.449  92.613 116.410  0.00  0.00     0.149 HD
ENDBRANCH   6  13
BRANCH   5  18
ATOM     18  N   LIG d   1       0.127  94.561 118.202  0.00  0.00     0.381 N 
ATOM     19  H   LIG d   1       0.642  94.495 119.058  0.00  0.00    -0.090 HD
ATOM     20  H   LIG d   1      -0.843  94.690 118.428  0.00  0.00    -0.090 HD
ATOM     21  H   LIG d   1       0.457  95.333 117.666  0.00  0.00    -0.090 HD
ENDBRANCH   5  18
BRANCH   3  22
ATOM     22  C   LIG d   1       3.154  91.089 116.888  0.00  0.00     0.382 C 
ATOM     23  O   LIG d   1       3.918  91.914 116.331  0.00  0.00    -0.241 OA
ATOM     24  O   LIG d   1       3.558  89.933 117.113  0.00  0.00    -0.241 OA
ENDBRANCH   3  22
TORSDOF 7
ENDMDL
MODEL 7
REMARK VINA RESULT:      -4.3      2.761      4.941
REMARK  7 active torsions:
REMARK  status: ('A' for Active; 'I' for Inactive)
REMARK    1  A    between atoms: C_2  and  C_3 
REMARK    2  A    between atoms: C_3  and  O_6 
REMARK    3  A    between atoms: C_3  and  C_4 
REMARK    4  A    between atoms: C_7  and  O_6 
REMARK    5  A    between atoms: C_9  and  C_10 
REMARK    6  A    between atoms: N_15  and  C_14 
REMARK    7  A    between atoms: N_20  and  C_19 
REMARK       I    between atoms: C_22  and  N_20 
ROOT
ATOM      1  C   LIG d   1      -3.792  91.124 117.453  0.00  0.00     0.161 C 
ATOM      2  C   LIG d   1      -4.389  92.223 116.812  0.00  0.00     0.016 C 
ATOM      3  C   LIG d   1      -5.389  93.023 117.409  0.00  0.00     0.038 C 
ATOM      4  C   LIG d   1      -5.756  92.870 118.755  0.00  0.00     0.028 C 
ATOM      5  C   LIG d   1      -5.544  91.456 119.283  0.00  0.00    -0.047 C 
ATOM      6  C   LIG d   1      -4.099  91.010 118.961  0.00  0.00     0.091 C 
ENDROOT
BRANCH   1   7
ATOM      7  O   LIG d   1      -2.368  91.144 117.232  0.00  0.00    -0.368 OA
BRANCH   7   8
ATOM      8  C   LIG d   1      -1.578  91.834 118.230  0.00  0.00     0.119 C 
BRANCH   8   9
ATOM      9  C   LIG d   1      -1.122  93.172 117.616  0.00  0.00     0.028 C 
ATOM     10  C   LIG d   1       0.410  93.312 117.586  0.00  0.00     0.006 C 
ENDBRANCH   8   9
BRANCH   8  11
ATOM     11  C   LIG d   1      -0.287  91.072 118.545  0.00  0.00     0.028 C 
ATOM     12  C   LIG d   1      -0.294  89.637 117.993  0.00  0.00     0.006 C 
ENDBRANCH   8  11
ENDBRANCH   7   8
ENDBRANCH   1   7
BRANCH   6  13
ATOM     13  N   LIG d   1      -3.835  89.606 119.369  0.00  0.00    -0.311 N 
ATOM     14  C   LIG d   1      -3.075  89.277 120.412  0.00  0.00     0.210 C 
ATOM     15  C   LIG d   1      -2.915  87.771 120.646  0.00  0.00     0.109 C 
ATOM     16  O   LIG d   1      -2.545  90.089 121.185  0.00  0.00    -0.276 OA
ATOM     17  H   LIG d   1      -4.252  88.884 118.815  0.00  0.00     0.149 HD
ENDBRANCH   6  13
BRANCH   5  18
ATOM     18  N   LIG d   1      -5.835  91.472 120.729  0.00  0.00     0.381 N 
ATOM     19  H   LIG d   1      -5.117  90.983 121.225  0.00  0.00    -0.090 HD
ATOM     20  H   LIG d   1      -6.707  90.999 120.891  0.00  0.00    -0.090 HD
ATOM     21  H   LIG d   1      -5.893  92.412 121.055  0.00  0.00    -0.090 HD
ENDBRANCH   5  18
BRANCH   3  22
ATOM     22  C   LIG d   1      -6.063  93.964 116.646  0.00  0.00     0.382 C 
ATOM     23  O   LIG d   1      -6.284  93.744 115.430  0.00  0.00    -0.241 OA
ATOM     24  O   LIG d   1      -6.415  95.049 117.146  0.00  0.00    -0.241 OA
ENDBRANCH   3  22
TORSDOF 7
ENDMDL
MODEL 8
REMARK VINA RESULT:      -4.3      2.900      4.768
REMARK  7 active torsions:
REMARK  status: ('A' for Active; 'I' for Inactive)
REMARK    1  A    between atoms: C_2  and  C_3 
REMARK    2  A    between atoms: C_3  and  O_6 
REMARK    3  A    between atoms: C_3  and  C_4 
REMARK    4  A    between atoms: C_7  and  O_6 
REMARK    5  A    between atoms: C_9  and  C_10 
REMARK    6  A    between atoms: N_15  and  C_14 
REMARK    7  A    between atoms: N_20  and  C_19 
REMARK       I    between atoms: C_22  and  N_20 
ROOT
ATOM      1  C   LIG d   1      -5.713  94.451 120.235  0.00  0.00     0.161 C 
ATOM      2  C   LIG d   1      -7.051  94.081 120.452  0.00  0.00     0.016 C 
ATOM      3  C   LIG d   1      -8.139  94.644 119.747  0.00  0.00     0.038 C 
ATOM      4  C   LIG d   1      -7.949  95.512 118.662  0.00  0.00     0.028 C 
ATOM      5  C   LIG d   1      -6.645  96.300 118.737  0.00  0.00    -0.047 C 
ATOM      6  C   LIG d   1      -5.478  95.316 118.979  0.00  0.00     0.091 C 
ENDROOT
BRANCH   1   7
ATOM      7  O   LIG d   1      -4.881  93.275 120.197  0.00  0.00    -0.368 OA
BRANCH   7   8
ATOM      8  C   LIG d   1      -5.561  92.020 119.954  0.00  0.00     0.119 C 
BRANCH   8   9
ATOM      9  C   LIG d   1      -4.782  90.919 120.698  0.00  0.00     0.028 C 
ATOM     10  C   LIG d   1      -3.905  90.080 119.754  0.00  0.00     0.006 C 
ENDBRANCH   8   9
BRANCH   8  11
ATOM     11  C   LIG d   1      -5.500  91.630 118.474  0.00  0.00     0.028 C 
ATOM     12  C   LIG d   1      -6.892  91.449 117.847  0.00  0.00     0.006 C 
ENDBRANCH   8  11
ENDBRANCH   7   8
ENDBRANCH   1   7
BRANCH   6  13
ATOM     13  N   LIG d   1      -4.176  96.012 119.150  0.00  0.00    -0.311 N 
ATOM     14  C   LIG d   1      -3.051  95.619 118.554  0.00  0.00     0.210 C 
ATOM     15  C   LIG d   1      -1.817  96.465 118.882  0.00  0.00     0.109 C 
ATOM     16  O   LIG d   1      -2.965  94.670 117.761  0.00  0.00    -0.276 OA
ATOM     17  H   LIG d   1      -4.162  96.812 119.752  0.00  0.00     0.149 HD
ENDBRANCH   6  13
BRANCH   5  18
ATOM     18  N   LIG d   1      -6.510  97.060 117.481  0.00  0.00     0.381 N 
ATOM     19  H   LIG d   1      -5.946  96.547 116.833  0.00  0.00    -0.090 HD
ATOM     20  H   LIG d   1      -6.051  97.932 117.676  0.00  0.00    -0.090 HD
ATOM     21  H   LIG d   1      -7.409  97.230 117.087  0.00  0.00    -0.090 HD
ENDBRANCH   5  18
BRANCH   3  22
ATOM     22  C   LIG d   1      -9.436  94.369 120.151  0.00  0.00     0.382 C 
ATOM     23  O   LIG d   1      -9.900  94.912 121.183  0.00  0.00    -0.241 OA
ATOM     24  O   LIG d   1     -10.134  93.551 119.522  0.00  0.00    -0.241 OA
ENDBRANCH   3  22
TORSDOF 7
ENDMDL
MODEL 9
REMARK VINA RESULT:      -4.3      2.557      6.191
REMARK  7 active torsions:
REMARK  status: ('A' for Active; 'I' for Inactive)
REMARK    1  A    between atoms: C_2  and  C_3 
REMARK    2  A    between atoms: C_3  and  O_6 
REMARK    3  A    between atoms: C_3  and  C_4 
REMARK    4  A    between atoms: C_7  and  O_6 
REMARK    5  A    between atoms: C_9  and  C_10 
REMARK    6  A    between atoms: N_15  and  C_14 
REMARK    7  A    between atoms: N_20  and  C_19 
REMARK       I    between atoms: C_22  and  N_20 
ROOT
ATOM      1  C   LIG d   1      -2.321  91.733 117.269  0.00  0.00     0.161 C 
ATOM      2  C   LIG d   1      -0.978  91.737 117.681  0.00  0.00     0.016 C 
ATOM      3  C   LIG d   1      -0.316  92.889 118.165  0.00  0.00     0.038 C 
ATOM      4  C   LIG d   1      -1.001  94.088 118.415  0.00  0.00     0.028 C 
ATOM      5  C   LIG d   1      -2.237  94.273 117.541  0.00  0.00    -0.047 C 
ATOM      6  C   LIG d   1      -3.115  93.004 117.639  0.00  0.00     0.091 C 
ENDROOT
BRANCH   1   7
ATOM      7  O   LIG d   1      -2.986  90.561 117.782  0.00  0.00    -0.368 OA
BRANCH   7   8
ATOM      8  C   LIG d   1      -3.058  90.449 119.224  0.00  0.00     0.119 C 
BRANCH   8   9
ATOM      9  C   LIG d   1      -2.782  88.978 119.589  0.00  0.00     0.028 C 
ATOM     10  C   LIG d   1      -1.286  88.626 119.517  0.00  0.00     0.006 C 
ENDBRANCH   8   9
BRANCH   8  11
ATOM     11  C   LIG d   1      -4.474  90.734 119.735  0.00  0.00     0.028 C 
ATOM     12  C   LIG d   1      -4.501  91.771 120.869  0.00  0.00     0.006 C 
ENDBRANCH   8  11
ENDBRANCH   7   8
ENDBRANCH   1   7
BRANCH   6  13
ATOM     13  N   LIG d   1      -4.303  93.067 116.749  0.00  0.00    -0.311 N 
ATOM     14  C   LIG d   1      -5.491  93.521 117.143  0.00  0.00     0.210 C 
ATOM     15  C   LIG d   1      -6.587  93.481 116.073  0.00  0.00     0.109 C 
ATOM     16  O   LIG d   1      -5.734  93.984 118.268  0.00  0.00    -0.276 OA
ATOM     17  H   LIG d   1      -4.187  92.741 115.809  0.00  0.00     0.149 HD
ENDBRANCH   6  13
BRANCH   5  18
ATOM     18  N   LIG d   1      -2.929  95.492 118.001  0.00  0.00     0.381 N 
ATOM     19  H   LIG d   1      -2.742  96.245 117.370  0.00  0.00    -0.090 HD
ATOM     20  H   LIG d   1      -2.577  95.743 118.907  0.00  0.00    -0.090 HD
ATOM     21  H   LIG d   1      -3.911  95.328 118.051  0.00  0.00    -0.090 HD
ENDBRANCH   5  18
BRANCH   3  22
ATOM     22  C   LIG d   1       1.055  92.859 118.367  0.00  0.00     0.382 C 
ATOM     23  O   LIG d   1       1.528  93.132 119.497  0.00  0.00    -0.241 OA
ATOM     24  O   LIG d   1       1.828  92.607 117.423  0.00  0.00    -0.241 OA
ENDBRANCH   3  22
TORSDOF 7
ENDMDL
