MODEL 1
REMARK VINA RESULT:      -5.0      0.000      0.000
REMARK  7 active torsions:
REMARK  status: ('A' for Active; 'I' for Inactive)
REMARK    1  A    between atoms: C_2  and  C_3 
REMARK    2  A    between atoms: C_3  and  O_6 
REMARK    3  A    between atoms: C_3  and  C_4 
REMARK    4  A    between atoms: C_7  and  O_6 
REMARK    5  A    between atoms: C_9  and  C_10 
REMARK    6  A    between atoms: N_15  and  C_14 
REMARK    7  A    between atoms: N_20  and  C_19 
REMARK       I    between atoms: C_22  and  N_20 
ROOT
ATOM      1  C   LIG d   1      -4.090  90.900 117.324  0.00  0.00     0.161 C 
ATOM      2  C   LIG d   1      -3.078  91.800 117.699  0.00  0.00     0.016 C 
ATOM      3  C   LIG d   1      -3.306  92.930 118.517  0.00  0.00     0.038 C 
ATOM      4  C   LIG d   1      -4.541  93.156 119.143  0.00  0.00     0.028 C 
ATOM      5  C   LIG d   1      -5.721  92.554 118.388  0.00  0.00    -0.047 C 
ATOM      6  C   LIG d   1      -5.420  91.068 118.087  0.00  0.00     0.091 C 
ENDROOT
BRANCH   1   7
ATOM      7  O   LIG d   1      -3.610  89.547 117.444  0.00  0.00    -0.368 OA
BRANCH   7   8
ATOM      8  C   LIG d   1      -2.331  89.380 118.106  0.00  0.00     0.119 C 
BRANCH   8   9
ATOM      9  C   LIG d   1      -1.501  88.390 117.266  0.00  0.00     0.028 C 
ATOM     10  C   LIG d   1      -0.722  87.391 118.138  0.00  0.00     0.006 C 
ENDBRANCH   8   9
BRANCH   8  11
ATOM     11  C   LIG d   1      -2.495  88.714 119.475  0.00  0.00     0.028 C 
ATOM     12  C   LIG d   1      -2.169  89.659 120.641  0.00  0.00     0.006 C 
ENDBRANCH   8  11
ENDBRANCH   7   8
ENDBRANCH   1   7
BRANCH   6  13
ATOM     13  N   LIG d   1      -6.488  90.425 117.277  0.00  0.00    -0.311 N 
ATOM     14  C   LIG d   1      -6.878  90.879 116.087  0.00  0.00     0.210 C 
ATOM     15  C   LIG d   1      -8.008  90.080 115.430  0.00  0.00     0.109 C 
ATOM     16  O   LIG d   1      -6.374  91.847 115.499  0.00  0.00    -0.276 OA
ATOM     17  H   LIG d   1      -6.929  89.615 117.665  0.00  0.00     0.149 HD
ENDBRANCH   6  13
BRANCH   5  18
ATOM     18  N   LIG d   1      -6.925  92.743 119.219  0.00  0.00     0.381 N 
ATOM     19  H   LIG d   1      -6.796  92.302 120.108  0.00  0.00    -0.090 HD
ATOM     20  H   LIG d   1      -7.707  92.309 118.762  0.00  0.00    -0.090 HD
ATOM     21  H   LIG d   1      -7.103  93.715 119.345  0.00  0.00    -0.090 HD
ENDBRANCH   5  18
BRANCH   3  22
ATOM     22  C   LIG d   1      -2.302  93.872 118.683  0.00  0.00     0.382 C 
ATOM     23  O   LIG d   1      -1.660  94.287 117.687  0.00  0.00    -0.241 OA
ATOM     24  O   LIG d   1      -1.999  94.279 119.820  0.00  0.00    -0.241 OA
ENDBRANCH   3  22
TORSDOF 7
ENDMDL
MODEL 2
REMARK VINA RESULT:      -5.0      2.066      4.684
REMARK  7 active torsions:
REMARK  status: ('A' for Active; 'I' for Inactive)
REMARK    1  A    between atoms: C_2  and  C_3 
REMARK    2  A    between atoms: C_3  and  O_6 
REMARK    3  A    between atoms: C_3  and  C_4 
REMARK    4  A    between atoms: C_7  and  O_6 
REMARK    5  A    between atoms: C_9  and  C_10 
REMARK    6  A    between atoms: N_15  and  C_14 
REMARK    7  A    between atoms: N_20  and  C_19 
REMARK       I    between atoms: C_22  and  N_20 
ROOT
ATOM      1  C   LIG d   1      -4.377  91.697 118.968  0.00  0.00     0.161 C 
ATOM      2  C   LIG d   1      -4.608  90.780 117.930  0.00  0.00     0.016 C 
ATOM      3  C   LIG d   1      -5.638  90.931 116.973  0.00  0.00     0.038 C 
ATOM      4  C   LIG d   1      -6.417  92.096 116.900  0.00  0.00     0.028 C 
ATOM      5  C   LIG d   1      -6.553  92.819 118.236  0.00  0.00    -0.047 C 
ATOM      6  C   LIG d   1      -5.144  93.029 118.838  0.00  0.00     0.091 C 
ENDROOT
BRANCH   1   7
ATOM      7  O   LIG d   1      -2.962  91.945 119.096  0.00  0.00    -0.368 OA
BRANCH   7   8
ATOM      8  C   LIG d   1      -2.245  92.194 117.862  0.00  0.00     0.119 C 
BRANCH   8   9
ATOM      9  C   LIG d   1      -0.915  91.420 117.934  0.00  0.00     0.028 C 
ATOM     10  C   LIG d   1      -1.040  90.113 118.735  0.00  0.00     0.006 C 
ENDBRANCH   8   9
BRANCH   8  11
ATOM     11  C   LIG d   1      -1.849  93.669 117.736  0.00  0.00     0.028 C 
ATOM     12  C   LIG d   1      -1.599  94.337 119.097  0.00  0.00     0.006 C 
ENDBRANCH   8  11
ENDBRANCH   7   8
ENDBRANCH   1   7
BRANCH   6  13
ATOM     13  N   LIG d   1      -5.192  93.655 120.185  0.00  0.00    -0.311 N 
ATOM     14  C   LIG d   1      -5.072  94.966 120.389  0.00  0.00     0.210 C 
ATOM     15  C   LIG d   1      -5.129  95.400 121.857  0.00  0.00     0.109 C 
ATOM     16  O   LIG d   1      -4.957  95.814 119.491  0.00  0.00    -0.276 OA
ATOM     17  H   LIG d   1      -5.314  93.044 120.968  0.00  0.00     0.149 HD
ENDBRANCH   6  13
BRANCH   5  18
ATOM     18  N   LIG d   1      -7.270  94.083 117.987  0.00  0.00     0.381 N 
ATOM     19  H   LIG d   1      -7.939  93.955 117.254  0.00  0.00    -0.090 HD
ATOM     20  H   LIG d   1      -6.609  94.780 117.691  0.00  0.00    -0.090 HD
ATOM     21  H   LIG d   1      -7.730  94.383 118.818  0.00  0.00    -0.090 HD
ENDBRANCH   5  18
BRANCH   3  22
ATOM     22  C   LIG d   1      -5.924  89.891 116.101  0.00  0.00     0.382 C 
ATOM     23  O   LIG d   1      -7.095  89.449 116.016  0.00  0.00    -0.241 OA
ATOM     24  O   LIG d   1      -5.017  89.361 115.432  0.00  0.00    -0.241 OA
ENDBRANCH   3  22
TORSDOF 7
ENDMDL
MODEL 3
REMARK VINA RESULT:      -4.9      2.764      6.386
REMARK  7 active torsions:
REMARK  status: ('A' for Active; 'I' for Inactive)
REMARK    1  A    between atoms: C_2  and  C_3 
REMARK    2  A    between atoms: C_3  and  O_6 
REMARK    3  A    between atoms: C_3  and  C_4 
REMARK    4  A    between atoms: C_7  and  O_6 
REMARK    5  A    between atoms: C_9  and  C_10 
REMARK    6  A    between atoms: N_15  and  C_14 
REMARK    7  A    between atoms: N_20  and  C_19 
REMARK       I    between atoms: C_22  and  N_20 
ROOT
ATOM      1  C   LIG d   1      -5.572  92.779 118.757  0.00  0.00     0.161 C 
ATOM      2  C   LIG d   1      -6.448  92.042 117.943  0.00  0.00     0.016 C 
ATOM      3  C   LIG d   1      -6.012  91.081 117.002  0.00  0.00     0.038 C 
ATOM      4  C   LIG d   1      -4.670  90.681 116.918  0.00  0.00     0.028 C 
ATOM      5  C   LIG d   1      -3.688  91.758 117.365  0.00  0.00    -0.047 C 
ATOM      6  C   LIG d   1      -4.113  92.277 118.758  0.00  0.00     0.091 C 
ENDROOT
BRANCH   1   7
ATOM      7  O   LIG d   1      -6.084  92.833 120.104  0.00  0.00    -0.368 OA
BRANCH   7   8
ATOM      8  C   LIG d   1      -6.387  94.153 120.618  0.00  0.00     0.119 C 
BRANCH   8   9
ATOM      9  C   LIG d   1      -7.763  94.075 121.308  0.00  0.00     0.028 C 
ATOM     10  C   LIG d   1      -8.102  92.652 121.784  0.00  0.00     0.006 C 
ENDBRANCH   8   9
BRANCH   8  11
ATOM     11  C   LIG d   1      -6.559  95.167 119.484  0.00  0.00     0.028 C 
ATOM     12  C   LIG d   1      -8.027  95.556 119.250  0.00  0.00     0.006 C 
ENDBRANCH   8  11
ENDBRANCH   7   8
ENDBRANCH   1   7
BRANCH   6  13
ATOM     13  N   LIG d   1      -3.253  93.393 119.233  0.00  0.00    -0.311 N 
ATOM     14  C   LIG d   1      -2.169  93.213 119.987  0.00  0.00     0.210 C 
ATOM     15  C   LIG d   1      -1.438  94.500 120.383  0.00  0.00     0.109 C 
ATOM     16  O   LIG d   1      -1.726  92.109 120.337  0.00  0.00    -0.276 OA
ATOM     17  H   LIG d   1      -3.522  94.320 118.969  0.00  0.00     0.149 HD
ENDBRANCH   6  13
BRANCH   5  18
ATOM     18  N   LIG d   1      -2.339  91.162 117.357  0.00  0.00     0.381 N 
ATOM     19  H   LIG d   1      -2.286  90.452 116.654  0.00  0.00    -0.090 HD
ATOM     20  H   LIG d   1      -2.167  90.734 118.250  0.00  0.00    -0.090 HD
ATOM     21  H   LIG d   1      -1.656  91.866 117.181  0.00  0.00    -0.090 HD
ENDBRANCH   5  18
BRANCH   3  22
ATOM     22  C   LIG d   1      -6.919  90.538 116.105  0.00  0.00     0.382 C 
ATOM     23  O   LIG d   1      -6.966  89.296 115.935  0.00  0.00    -0.241 OA
ATOM     24  O   LIG d   1      -7.661  91.278 115.430  0.00  0.00    -0.241 OA
ENDBRANCH   3  22
TORSDOF 7
ENDMDL
MODEL 4
REMARK VINA RESULT:      -4.8      1.897      4.637
REMARK  7 active torsions:
REMARK  status: ('A' for Active; 'I' for Inactive)
REMARK    1  A    between atoms: C_2  and  C_3 
REMARK    2  A    between atoms: C_3  and  O_6 
REMARK    3  A    between atoms: C_3  and  C_4 
REMARK    4  A    between atoms: C_7  and  O_6 
REMARK    5  A    between atoms: C_9  and  C_10 
REMARK    6  A    between atoms: N_15  and  C_14 
REMARK    7  A    between atoms: N_20  and  C_19 
REMARK       I    between atoms: C_22  and  N_20 
ROOT
ATOM      1  C   LIG d   1      -4.256  91.602 118.273  0.00  0.00     0.161 C 
ATOM      2  C   LIG d   1      -4.854  90.841 117.254  0.00  0.00     0.016 C 
ATOM      3  C   LIG d   1      -6.126  91.134 116.709  0.00  0.00     0.038 C 
ATOM      4  C   LIG d   1      -6.824  92.304 117.043  0.00  0.00     0.028 C 
ATOM      5  C   LIG d   1      -6.489  92.833 118.434  0.00  0.00    -0.047 C 
ATOM      6  C   LIG d   1      -4.954  92.945 118.572  0.00  0.00     0.091 C 
ENDROOT
BRANCH   1   7
ATOM      7  O   LIG d   1      -2.864  91.817 117.968  0.00  0.00    -0.368 OA
BRANCH   7   8
ATOM      8  C   LIG d   1      -1.921  90.951 118.647  0.00  0.00     0.119 C 
BRANCH   8   9
ATOM      9  C   LIG d   1      -0.798  91.841 119.212  0.00  0.00     0.028 C 
ATOM     10  C   LIG d   1       0.546  91.100 119.310  0.00  0.00     0.006 C 
ENDBRANCH   8   9
BRANCH   8  11
ATOM     11  C   LIG d   1      -1.230  90.001 117.664  0.00  0.00     0.028 C 
ATOM     12  C   LIG d   1      -1.841  88.591 117.668  0.00  0.00     0.006 C 
ENDBRANCH   8  11
ENDBRANCH   7   8
ENDBRANCH   1   7
BRANCH   6  13
ATOM     13  N   LIG d   1      -4.537  93.375 119.932  0.00  0.00    -0.311 N 
ATOM     14  C   LIG d   1      -3.658  94.352 120.155  0.00  0.00     0.210 C 
ATOM     15  C   LIG d   1      -3.354  94.623 121.631  0.00  0.00     0.109 C 
ATOM     16  O   LIG d   1      -3.127  95.040 119.271  0.00  0.00    -0.276 OA
ATOM     17  H   LIG d   1      -4.943  92.891 120.708  0.00  0.00     0.149 HD
ENDBRANCH   6  13
BRANCH   5  18
ATOM     18  N   LIG d   1      -7.181  94.126 118.597  0.00  0.00     0.381 N 
ATOM     19  H   LIG d   1      -6.543  94.808 118.955  0.00  0.00    -0.090 HD
ATOM     20  H   LIG d   1      -7.927  94.013 119.260  0.00  0.00    -0.090 HD
ATOM     21  H   LIG d   1      -7.547  94.430 117.722  0.00  0.00    -0.090 HD
ENDBRANCH   5  18
BRANCH   3  22
ATOM     22  C   LIG d   1      -6.729  90.230 115.848  0.00  0.00     0.382 C 
ATOM     23  O   LIG d   1      -6.085  89.237 115.430  0.00  0.00    -0.241 OA
ATOM     24  O   LIG d   1      -7.894  90.418 115.449  0.00  0.00    -0.241 OA
ENDBRANCH   3  22
TORSDOF 7
ENDMDL
MODEL 5
REMARK VINA RESULT:      -4.7      2.765      6.240
REMARK  7 active torsions:
REMARK  status: ('A' for Active; 'I' for Inactive)
REMARK    1  A    between atoms: C_2  and  C_3 
REMARK    2  A    between atoms: C_3  and  O_6 
REMARK    3  A    between atoms: C_3  and  C_4 
REMARK    4  A    between atoms: C_7  and  O_6 
REMARK    5  A    between atoms: C_9  and  C_10 
REMARK    6  A    between atoms: N_15  and  C_14 
REMARK    7  A    between atoms: N_20  and  C_19 
REMARK       I    between atoms: C_22  and  N_20 
ROOT
ATOM      1  C   LIG d   1      -5.134  92.779 118.995  0.00  0.00     0.161 C 
ATOM      2  C   LIG d   1      -6.066  92.115 118.181  0.00  0.00     0.016 C 
ATOM      3  C   LIG d   1      -5.702  91.190 117.175  0.00  0.00     0.038 C 
ATOM      4  C   LIG d   1      -4.379  90.750 117.016  0.00  0.00     0.028 C 
ATOM      5  C   LIG d   1      -3.342  91.769 117.478  0.00  0.00    -0.047 C 
ATOM      6  C   LIG d   1      -3.694  92.229 118.911  0.00  0.00     0.091 C 
ENDROOT
BRANCH   1   7
ATOM      7  O   LIG d   1      -5.591  92.779 120.362  0.00  0.00    -0.368 OA
BRANCH   7   8
ATOM      8  C   LIG d   1      -7.015  92.964 120.557  0.00  0.00     0.119 C 
BRANCH   8   9
ATOM      9  C   LIG d   1      -7.234  94.422 121.008  0.00  0.00     0.028 C 
ATOM     10  C   LIG d   1      -8.700  94.709 121.374  0.00  0.00     0.006 C 
ENDBRANCH   8   9
BRANCH   8  11
ATOM     11  C   LIG d   1      -7.536  92.101 121.710  0.00  0.00     0.028 C 
ATOM     12  C   LIG d   1      -6.408  91.438 122.515  0.00  0.00     0.006 C 
ENDBRANCH   8  11
ENDBRANCH   7   8
ENDBRANCH   1   7
BRANCH   6  13
ATOM     13  N   LIG d   1      -2.778  93.288 119.408  0.00  0.00    -0.311 N 
ATOM     14  C   LIG d   1      -1.687  93.035 120.128  0.00  0.00     0.210 C 
ATOM     15  C   LIG d   1      -0.893  94.274 120.555  0.00  0.00     0.109 C 
ATOM     16  O   LIG d   1      -1.283  91.901 120.426  0.00  0.00    -0.276 OA
ATOM     17  H   LIG d   1      -3.013  94.236 119.185  0.00  0.00     0.149 HD
ENDBRANCH   6  13
BRANCH   5  18
ATOM     18  N   LIG d   1      -2.017  91.129 117.385  0.00  0.00     0.381 N 
ATOM     19  H   LIG d   1      -2.008  90.476 116.627  0.00  0.00    -0.090 HD
ATOM     20  H   LIG d   1      -1.838  90.626 118.236  0.00  0.00    -0.090 HD
ATOM     21  H   LIG d   1      -1.313  91.821 117.246  0.00  0.00    -0.090 HD
ENDBRANCH   5  18
BRANCH   3  22
ATOM     22  C   LIG d   1      -6.661  90.725 116.288  0.00  0.00     0.382 C 
ATOM     23  O   LIG d   1      -7.389  91.538 115.669  0.00  0.00    -0.241 OA
ATOM     24  O   LIG d   1      -6.838  89.502 116.133  0.00  0.00    -0.241 OA
ENDBRANCH   3  22
TORSDOF 7
ENDMDL
MODEL 6
REMARK VINA RESULT:      -4.6      2.666      5.565
REMARK  7 active torsions:
REMARK  status: ('A' for Active; 'I' for Inactive)
REMARK    1  A    between atoms: C_2  and  C_3 
REMARK    2  A    between atoms: C_3  and  O_6 
REMARK    3  A    between atoms: C_3  and  C_4 
REMARK    4  A    between atoms: C_7  and  O_6 
REMARK    5  A    between atoms: C_9  and  C_10 
REMARK    6  A    between atoms: N_15  and  C_14 
REMARK    7  A    between atoms: N_20  and  C_19 
REMARK       I    between atoms: C_22  and  N_20 
ROOT
ATOM      1  C   LIG d   1      -2.692  92.826 118.610  0.00  0.00     0.161 C 
ATOM      2  C   LIG d   1      -4.057  93.003 118.891  0.00  0.00     0.016 C 
ATOM      3  C   LIG d   1      -5.061  92.099 118.475  0.00  0.00     0.038 C 
ATOM      4  C   LIG d   1      -4.750  90.870 117.875  0.00  0.00     0.028 C 
ATOM      5  C   LIG d   1      -3.424  90.882 117.122  0.00  0.00    -0.047 C 
ATOM      6  C   LIG d   1      -2.322  91.435 118.054  0.00  0.00     0.091 C 
ENDROOT
BRANCH   1   7
ATOM      7  O   LIG d   1      -1.910  93.121 119.784  0.00  0.00    -0.368 OA
BRANCH   7   8
ATOM      8  C   LIG d   1      -1.258  94.414 119.807  0.00  0.00     0.119 C 
BRANCH   8   9
ATOM      9  C   LIG d   1      -1.067  94.862 118.345  0.00  0.00     0.028 C 
ATOM     10  C   LIG d   1      -1.040  96.393 118.199  0.00  0.00     0.006 C 
ENDBRANCH   8   9
BRANCH   8  11
ATOM     11  C   LIG d   1       0.155  94.316 120.389  0.00  0.00     0.028 C 
ATOM     12  C   LIG d   1       1.140  93.606 119.446  0.00  0.00     0.006 C 
ENDBRANCH   8  11
ENDBRANCH   7   8
ENDBRANCH   1   7
BRANCH   6  13
ATOM     13  N   LIG d   1      -1.010  91.560 117.368  0.00  0.00    -0.311 N 
ATOM     14  C   LIG d   1      -0.056  90.632 117.436  0.00  0.00     0.210 C 
ATOM     15  C   LIG d   1       1.228  90.968 116.671  0.00  0.00     0.109 C 
ATOM     16  O   LIG d   1      -0.163  89.549 118.031  0.00  0.00    -0.276 OA
ATOM     17  H   LIG d   1      -0.850  92.393 116.837  0.00  0.00     0.149 HD
ENDBRANCH   6  13
BRANCH   5  18
ATOM     18  N   LIG d   1      -3.158  89.505 116.665  0.00  0.00     0.381 N 
ATOM     19  H   LIG d   1      -2.371  89.131 117.157  0.00  0.00    -0.090 HD
ATOM     20  H   LIG d   1      -2.938  89.524 115.685  0.00  0.00    -0.090 HD
ATOM     21  H   LIG d   1      -3.959  88.933 116.822  0.00  0.00    -0.090 HD
ENDBRANCH   5  18
BRANCH   3  22
ATOM     22  C   LIG d   1      -6.397  92.440 118.622  0.00  0.00     0.382 C 
ATOM     23  O   LIG d   1      -7.010  92.136 119.674  0.00  0.00    -0.241 OA
ATOM     24  O   LIG d   1      -7.009  93.009 117.698  0.00  0.00    -0.241 OA
ENDBRANCH   3  22
TORSDOF 7
ENDMDL
MODEL 7
REMARK VINA RESULT:      -4.5      2.229      4.559
REMARK  7 active torsions:
REMARK  status: ('A' for Active; 'I' for Inactive)
REMARK    1  A    between atoms: C_2  and  C_3 
REMARK    2  A    between atoms: C_3  and  O_6 
REMARK    3  A    between atoms: C_3  and  C_4 
REMARK    4  A    between atoms: C_7  and  O_6 
REMARK    5  A    between atoms: C_9  and  C_10 
REMARK    6  A    between atoms: N_15  and  C_14 
REMARK    7  A    between atoms: N_20  and  C_19 
REMARK       I    between atoms: C_22  and  N_20 
ROOT
ATOM      1  C   LIG d   1      -3.920  92.255 118.767  0.00  0.00     0.161 C 
ATOM      2  C   LIG d   1      -4.917  93.214 119.015  0.00  0.00     0.016 C 
ATOM      3  C   LIG d   1      -6.180  93.204 118.380  0.00  0.00     0.038 C 
ATOM      4  C   LIG d   1      -6.591  92.141 117.561  0.00  0.00     0.028 C 
ATOM      5  C   LIG d   1      -5.433  91.413 116.888  0.00  0.00    -0.047 C 
ATOM      6  C   LIG d   1      -4.391  91.026 117.962  0.00  0.00     0.091 C 
ENDROOT
BRANCH   1   7
ATOM      7  O   LIG d   1      -3.322  91.840 120.011  0.00  0.00    -0.368 OA
BRANCH   7   8
ATOM      8  C   LIG d   1      -1.964  92.287 120.246  0.00  0.00     0.119 C 
BRANCH   8   9
ATOM      9  C   LIG d   1      -2.023  93.415 121.295  0.00  0.00     0.028 C 
ATOM     10  C   LIG d   1      -1.750  94.799 120.683  0.00  0.00     0.006 C 
ENDBRANCH   8   9
BRANCH   8  11
ATOM     11  C   LIG d   1      -1.365  92.930 118.992  0.00  0.00     0.028 C 
ATOM     12  C   LIG d   1      -0.120  92.188 118.479  0.00  0.00     0.006 C 
ENDBRANCH   8  11
ENDBRANCH   7   8
ENDBRANCH   1   7
BRANCH   6  13
ATOM     13  N   LIG d   1      -3.185  90.384 117.376  0.00  0.00    -0.311 N 
ATOM     14  C   LIG d   1      -2.592  89.317 117.908  0.00  0.00     0.210 C 
ATOM     15  C   LIG d   1      -1.350  88.826 117.157  0.00  0.00     0.109 C 
ATOM     16  O   LIG d   1      -2.994  88.710 118.912  0.00  0.00    -0.276 OA
ATOM     17  H   LIG d   1      -2.810  90.793 116.543  0.00  0.00     0.149 HD
ENDBRANCH   6  13
BRANCH   5  18
ATOM     18  N   LIG d   1      -5.992  90.248 116.178  0.00  0.00     0.381 N 
ATOM     19  H   LIG d   1      -5.699  90.261 115.221  0.00  0.00    -0.090 HD
ATOM     20  H   LIG d   1      -6.995  90.303 116.201  0.00  0.00    -0.090 HD
ATOM     21  H   LIG d   1      -5.688  89.405 116.614  0.00  0.00    -0.090 HD
ENDBRANCH   5  18
BRANCH   3  22
ATOM     22  C   LIG d   1      -7.033  94.287 118.530  0.00  0.00     0.382 C 
ATOM     23  O   LIG d   1      -7.971  94.465 117.715  0.00  0.00    -0.241 OA
ATOM     24  O   LIG d   1      -6.850  95.113 119.444  0.00  0.00    -0.241 OA
ENDBRANCH   3  22
TORSDOF 7
ENDMDL
MODEL 8
REMARK VINA RESULT:      -4.5      2.191      2.622
REMARK  7 active torsions:
REMARK  status: ('A' for Active; 'I' for Inactive)
REMARK    1  A    between atoms: C_2  and  C_3 
REMARK    2  A    between atoms: C_3  and  O_6 
REMARK    3  A    between atoms: C_3  and  C_4 
REMARK    4  A    between atoms: C_7  and  O_6 
REMARK    5  A    between atoms: C_9  and  C_10 
REMARK    6  A    between atoms: N_15  and  C_14 
REMARK    7  A    between atoms: N_20  and  C_19 
REMARK       I    between atoms: C_22  and  N_20 
ROOT
ATOM      1  C   LIG d   1      -1.658  90.191 117.459  0.00  0.00     0.161 C 
ATOM      2  C   LIG d   1      -0.542  90.626 118.194  0.00  0.00     0.016 C 
ATOM      3  C   LIG d   1      -0.527  91.817 118.955  0.00  0.00     0.038 C 
ATOM      4  C   LIG d   1      -1.685  92.583 119.157  0.00  0.00     0.028 C 
ATOM      5  C   LIG d   1      -2.701  92.455 118.026  0.00  0.00    -0.047 C 
ATOM      6  C   LIG d   1      -2.965  90.956 117.757  0.00  0.00     0.091 C 
ENDROOT
BRANCH   1   7
ATOM      7  O   LIG d   1      -1.850  88.776 117.653  0.00  0.00    -0.368 OA
BRANCH   7   8
ATOM      8  C   LIG d   1      -1.175  88.192 118.795  0.00  0.00     0.119 C 
BRANCH   8   9
ATOM      9  C   LIG d   1      -0.643  86.812 118.362  0.00  0.00     0.028 C 
ATOM     10  C   LIG d   1       0.320  86.904 117.166  0.00  0.00     0.006 C 
ENDBRANCH   8   9
BRANCH   8  11
ATOM     11  C   LIG d   1      -2.156  87.908 119.937  0.00  0.00     0.028 C 
ATOM     12  C   LIG d   1      -1.738  88.568 121.260  0.00  0.00     0.006 C 
ENDBRANCH   8  11
ENDBRANCH   7   8
ENDBRANCH   1   7
BRANCH   6  13
ATOM     13  N   LIG d   1      -3.884  90.739 116.609  0.00  0.00    -0.311 N 
ATOM     14  C   LIG d   1      -5.199  90.578 116.742  0.00  0.00     0.210 C 
ATOM     15  C   LIG d   1      -5.959  90.348 115.432  0.00  0.00     0.109 C 
ATOM     16  O   LIG d   1      -5.813  90.634 117.818  0.00  0.00    -0.276 OA
ATOM     17  H   LIG d   1      -3.474  90.711 115.696  0.00  0.00     0.149 HD
ENDBRANCH   6  13
BRANCH   5  18
ATOM     18  N   LIG d   1      -3.912  93.192 118.429  0.00  0.00     0.381 N 
ATOM     19  H   LIG d   1      -4.726  92.657 118.203  0.00  0.00    -0.090 HD
ATOM     20  H   LIG d   1      -3.952  94.057 117.919  0.00  0.00    -0.090 HD
ATOM     21  H   LIG d   1      -3.889  93.377 119.408  0.00  0.00    -0.090 HD
ENDBRANCH   5  18
BRANCH   3  22
ATOM     22  C   LIG d   1       0.666  92.275 119.492  0.00  0.00     0.382 C 
ATOM     23  O   LIG d   1       1.074  93.430 119.220  0.00  0.00    -0.241 OA
ATOM     24  O   LIG d   1       1.363  91.532 120.209  0.00  0.00    -0.241 OA
ENDBRANCH   3  22
TORSDOF 7
ENDMDL
MODEL 9
REMARK VINA RESULT:      -4.4      2.267      4.887
REMARK  7 active torsions:
REMARK  status: ('A' for Active; 'I' for Inactive)
REMARK    1  A    between atoms: C_2  and  C_3 
REMARK    2  A    between atoms: C_3  and  O_6 
REMARK    3  A    between atoms: C_3  and  C_4 
REMARK    4  A    between atoms: C_7  and  O_6 
REMARK    5  A    between atoms: C_9  and  C_10 
REMARK    6  A    between atoms: N_15  and  C_14 
REMARK    7  A    between atoms: N_20  and  C_19 
REMARK       I    between atoms: C_22  and  N_20 
ROOT
ATOM      1  C   LIG d   1      -4.942  92.456 119.856  0.00  0.00     0.161 C 
ATOM      2  C   LIG d   1      -4.034  91.435 119.530  0.00  0.00     0.016 C 
ATOM      3  C   LIG d   1      -4.049  90.746 118.295  0.00  0.00     0.038 C 
ATOM      4  C   LIG d   1      -4.885  91.136 117.238  0.00  0.00     0.028 C 
ATOM      5  C   LIG d   1      -6.162  91.830 117.700  0.00  0.00    -0.047 C 
ATOM      6  C   LIG d   1      -5.789  92.971 118.674  0.00  0.00     0.091 C 
ENDROOT
BRANCH   1   7
ATOM      7  O   LIG d   1      -4.244  93.548 120.486  0.00  0.00    -0.368 OA
BRANCH   7   8
ATOM      8  C   LIG d   1      -2.823  93.636 120.216  0.00  0.00     0.119 C 
BRANCH   8   9
ATOM      9  C   LIG d   1      -2.142  94.172 121.491  0.00  0.00     0.028 C 
ATOM     10  C   LIG d   1      -1.495  95.550 121.275  0.00  0.00     0.006 C 
ENDBRANCH   8   9
BRANCH   8  11
ATOM     11  C   LIG d   1      -2.525  94.675 119.130  0.00  0.00     0.028 C 
ATOM     12  C   LIG d   1      -1.871  94.061 117.882  0.00  0.00     0.006 C 
ENDBRANCH   8  11
ENDBRANCH   7   8
ENDBRANCH   1   7
BRANCH   6  13
ATOM     13  N   LIG d   1      -6.986  93.647 119.239  0.00  0.00    -0.311 N 
ATOM     14  C   LIG d   1      -7.206  94.957 119.132  0.00  0.00     0.210 C 
ATOM     15  C   LIG d   1      -8.491  95.453 119.804  0.00  0.00     0.109 C 
ATOM     16  O   LIG d   1      -6.476  95.749 118.518  0.00  0.00    -0.276 OA
ATOM     17  H   LIG d   1      -7.646  93.074 119.727  0.00  0.00     0.149 HD
ENDBRANCH   6  13
BRANCH   5  18
ATOM     18  N   LIG d   1      -6.871  92.305 116.497  0.00  0.00     0.381 N 
ATOM     19  H   LIG d   1      -7.689  91.749 116.345  0.00  0.00    -0.090 HD
ATOM     20  H   LIG d   1      -6.267  92.200 115.701  0.00  0.00    -0.090 HD
ATOM     21  H   LIG d   1      -7.126  93.261 116.607  0.00  0.00    -0.090 HD
ENDBRANCH   5  18
BRANCH   3  22
ATOM     22  C   LIG d   1      -3.249  89.626 118.124  0.00  0.00     0.382 C 
ATOM     23  O   LIG d   1      -3.006  88.874 119.098  0.00  0.00    -0.241 OA
ATOM     24  O   LIG d   1      -2.732  89.383 117.017  0.00  0.00    -0.241 OA
ENDBRANCH   3  22
TORSDOF 7
ENDMDL
