MODEL 1
REMARK VINA RESULT:      -5.2      0.000      0.000
REMARK  7 active torsions:
REMARK  status: ('A' for Active; 'I' for Inactive)
REMARK    1  A    between atoms: C_2  and  C_3 
REMARK    2  A    between atoms: C_3  and  O_6 
REMARK    3  A    between atoms: C_3  and  C_4 
REMARK    4  A    between atoms: C_7  and  O_6 
REMARK    5  A    between atoms: C_9  and  C_10 
REMARK    6  A    between atoms: N_15  and  C_14 
REMARK    7  A    between atoms: N_20  and  C_19 
REMARK       I    between atoms: C_22  and  N_20 
ROOT
ATOM      1  C   LIG d   1      -6.473  93.503 117.921  0.00  0.00     0.161 C 
ATOM      2  C   LIG d   1      -7.031  92.398 117.256  0.00  0.00     0.016 C 
ATOM      3  C   LIG d   1      -6.333  91.189 117.034  0.00  0.00     0.038 C 
ATOM      4  C   LIG d   1      -5.072  90.946 117.600  0.00  0.00     0.028 C 
ATOM      5  C   LIG d   1      -4.266  92.217 117.849  0.00  0.00    -0.047 C 
ATOM      6  C   LIG d   1      -5.139  93.217 118.641  0.00  0.00     0.091 C 
ENDROOT
BRANCH   1   7
ATOM      7  O   LIG d   1      -7.433  94.054 118.844  0.00  0.00    -0.368 OA
BRANCH   7   8
ATOM      8  C   LIG d   1      -8.372  95.009 118.292  0.00  0.00     0.119 C 
BRANCH   8   9
ATOM      9  C   LIG d   1      -7.624  96.344 118.113  0.00  0.00     0.028 C 
ATOM     10  C   LIG d   1      -7.440  97.096 119.441  0.00  0.00     0.006 C 
ENDBRANCH   8   9
BRANCH   8  11
ATOM     11  C   LIG d   1      -9.506  95.308 119.277  0.00  0.00     0.028 C 
ATOM     12  C   LIG d   1      -9.822  94.121 120.201  0.00  0.00     0.006 C 
ENDBRANCH   8  11
ENDBRANCH   7   8
ENDBRANCH   1   7
BRANCH   6  13
ATOM     13  N   LIG d   1      -4.455  94.519 118.855  0.00  0.00    -0.311 N 
ATOM     14  C   LIG d   1      -4.356  95.108 120.046  0.00  0.00     0.210 C 
ATOM     15  C   LIG d   1      -3.629  96.457 120.042  0.00  0.00     0.109 C 
ATOM     16  O   LIG d   1      -4.773  94.627 121.110  0.00  0.00    -0.276 OA
ATOM     17  H   LIG d   1      -4.061  94.965 118.050  0.00  0.00     0.149 HD
ENDBRANCH   6  13
BRANCH   5  18
ATOM     18  N   LIG d   1      -3.036  91.830 118.565  0.00  0.00     0.381 N 
ATOM     19  H   LIG d   1      -2.476  92.641 118.740  0.00  0.00    -0.090 HD
ATOM     20  H   LIG d   1      -2.507  91.201 117.987  0.00  0.00    -0.090 HD
ATOM     21  H   LIG d   1      -3.267  91.385 119.426  0.00  0.00    -0.090 HD
ENDBRANCH   5  18
BRANCH   3  22
ATOM     22  C   LIG d   1      -6.880  90.221 116.206  0.00  0.00     0.382 C 
ATOM     23  O   LIG d   1      -8.107  89.966 116.266  0.00  0.00    -0.241 OA
ATOM     24  O   LIG d   1      -6.155  89.570 115.431  0.00  0.00    -0.241 OA
ENDBRANCH   3  22
TORSDOF 7
ENDMDL
MODEL 2
REMARK VINA RESULT:      -5.0      2.190      4.474
REMARK  7 active torsions:
REMARK  status: ('A' for Active; 'I' for Inactive)
REMARK    1  A    between atoms: C_2  and  C_3 
REMARK    2  A    between atoms: C_3  and  O_6 
REMARK    3  A    between atoms: C_3  and  C_4 
REMARK    4  A    between atoms: C_7  and  O_6 
REMARK    5  A    between atoms: C_9  and  C_10 
REMARK    6  A    between atoms: N_15  and  C_14 
REMARK    7  A    between atoms: N_20  and  C_19 
REMARK       I    between atoms: C_22  and  N_20 
ROOT
ATOM      1  C   LIG d   1      -5.093  91.951 118.706  0.00  0.00     0.161 C 
ATOM      2  C   LIG d   1      -5.466  91.071 117.675  0.00  0.00     0.016 C 
ATOM      3  C   LIG d   1      -6.402  91.404 116.669  0.00  0.00     0.038 C 
ATOM      4  C   LIG d   1      -6.919  92.701 116.537  0.00  0.00     0.028 C 
ATOM      5  C   LIG d   1      -6.957  93.475 117.851  0.00  0.00    -0.047 C 
ATOM      6  C   LIG d   1      -5.562  93.408 118.514  0.00  0.00     0.091 C 
ENDROOT
BRANCH   1   7
ATOM      7  O   LIG d   1      -3.665  91.905 118.894  0.00  0.00    -0.368 OA
BRANCH   7   8
ATOM      8  C   LIG d   1      -3.185  90.991 119.910  0.00  0.00     0.119 C 
BRANCH   8   9
ATOM      9  C   LIG d   1      -2.397  91.819 120.944  0.00  0.00     0.028 C 
ATOM     10  C   LIG d   1      -3.229  92.138 122.197  0.00  0.00     0.006 C 
ENDBRANCH   8   9
BRANCH   8  11
ATOM     11  C   LIG d   1      -2.173  89.996 119.332  0.00  0.00     0.028 C 
ATOM     12  C   LIG d   1      -2.826  88.685 118.866  0.00  0.00     0.006 C 
ENDBRANCH   8  11
ENDBRANCH   7   8
ENDBRANCH   1   7
BRANCH   6  13
ATOM     13  N   LIG d   1      -5.535  94.068 119.845  0.00  0.00    -0.311 N 
ATOM     14  C   LIG d   1      -4.594  94.935 120.214  0.00  0.00     0.210 C 
ATOM     15  C   LIG d   1      -4.742  95.484 121.636  0.00  0.00     0.109 C 
ATOM     16  O   LIG d   1      -3.668  95.327 119.487  0.00  0.00    -0.276 OA
ATOM     17  H   LIG d   1      -6.266  93.832 120.486  0.00  0.00     0.149 HD
ENDBRANCH   6  13
BRANCH   5  18
ATOM     18  N   LIG d   1      -7.386  94.852 117.545  0.00  0.00     0.381 N 
ATOM     19  H   LIG d   1      -6.726  95.504 117.920  0.00  0.00    -0.090 HD
ATOM     20  H   LIG d   1      -8.277  95.020 117.980  0.00  0.00    -0.090 HD
ATOM     21  H   LIG d   1      -7.462  94.975 116.559  0.00  0.00    -0.090 HD
ENDBRANCH   5  18
BRANCH   3  22
ATOM     22  C   LIG d   1      -6.861  90.421 115.805  0.00  0.00     0.382 C 
ATOM     23  O   LIG d   1      -8.058  90.425 115.430  0.00  0.00    -0.241 OA
ATOM     24  O   LIG d   1      -6.104  89.506 115.431  0.00  0.00    -0.241 OA
ENDBRANCH   3  22
TORSDOF 7
ENDMDL
MODEL 3
REMARK VINA RESULT:      -4.9      2.200      4.118
REMARK  7 active torsions:
REMARK  status: ('A' for Active; 'I' for Inactive)
REMARK    1  A    between atoms: C_2  and  C_3 
REMARK    2  A    between atoms: C_3  and  O_6 
REMARK    3  A    between atoms: C_3  and  C_4 
REMARK    4  A    between atoms: C_7  and  O_6 
REMARK    5  A    between atoms: C_9  and  C_10 
REMARK    6  A    between atoms: N_15  and  C_14 
REMARK    7  A    between atoms: N_20  and  C_19 
REMARK       I    between atoms: C_22  and  N_20 
ROOT
ATOM      1  C   LIG d   1      -5.782  92.347 119.250  0.00  0.00     0.161 C 
ATOM      2  C   LIG d   1      -5.839  91.449 118.171  0.00  0.00     0.016 C 
ATOM      3  C   LIG d   1      -6.465  91.751 116.940  0.00  0.00     0.038 C 
ATOM      4  C   LIG d   1      -6.948  93.035 116.649  0.00  0.00     0.028 C 
ATOM      5  C   LIG d   1      -7.363  93.821 117.887  0.00  0.00    -0.047 C 
ATOM      6  C   LIG d   1      -6.206  93.791 118.912  0.00  0.00     0.091 C 
ENDROOT
BRANCH   1   7
ATOM      7  O   LIG d   1      -4.462  92.334 119.828  0.00  0.00    -0.368 OA
BRANCH   7   8
ATOM      8  C   LIG d   1      -3.467  93.150 119.162  0.00  0.00     0.119 C 
BRANCH   8   9
ATOM      9  C   LIG d   1      -2.300  92.226 118.764  0.00  0.00     0.028 C 
ATOM     10  C   LIG d   1      -2.382  90.851 119.449  0.00  0.00     0.006 C 
ENDBRANCH   8   9
BRANCH   8  11
ATOM     11  C   LIG d   1      -2.860  94.181 120.119  0.00  0.00     0.028 C 
ATOM     12  C   LIG d   1      -3.176  93.883 121.593  0.00  0.00     0.006 C 
ENDBRANCH   8  11
ENDBRANCH   7   8
ENDBRANCH   1   7
BRANCH   6  13
ATOM     13  N   LIG d   1      -6.561  94.466 120.188  0.00  0.00    -0.311 N 
ATOM     14  C   LIG d   1      -6.258  95.735 120.455  0.00  0.00     0.210 C 
ATOM     15  C   LIG d   1      -6.698  96.228 121.837  0.00  0.00     0.109 C 
ATOM     16  O   LIG d   1      -5.694  96.509 119.666  0.00  0.00    -0.276 OA
ATOM     17  H   LIG d   1      -7.048  93.921 120.872  0.00  0.00     0.149 HD
ENDBRANCH   6  13
BRANCH   5  18
ATOM     18  N   LIG d   1      -7.715  95.186 117.452  0.00  0.00     0.381 N 
ATOM     19  H   LIG d   1      -7.823  95.779 118.251  0.00  0.00    -0.090 HD
ATOM     20  H   LIG d   1      -8.592  95.155 116.962  0.00  0.00    -0.090 HD
ATOM     21  H   LIG d   1      -7.004  95.547 116.855  0.00  0.00    -0.090 HD
ENDBRANCH   5  18
BRANCH   3  22
ATOM     22  C   LIG d   1      -6.648  90.749 115.998  0.00  0.00     0.382 C 
ATOM     23  O   LIG d   1      -7.759  90.617 115.432  0.00  0.00    -0.241 OA
ATOM     24  O   LIG d   1      -5.729  89.948 115.741  0.00  0.00    -0.241 OA
ENDBRANCH   3  22
TORSDOF 7
ENDMDL
MODEL 4
REMARK VINA RESULT:      -4.5      1.142      1.272
REMARK  7 active torsions:
REMARK  status: ('A' for Active; 'I' for Inactive)
REMARK    1  A    between atoms: C_2  and  C_3 
REMARK    2  A    between atoms: C_3  and  O_6 
REMARK    3  A    between atoms: C_3  and  C_4 
REMARK    4  A    between atoms: C_7  and  O_6 
REMARK    5  A    between atoms: C_9  and  C_10 
REMARK    6  A    between atoms: N_15  and  C_14 
REMARK    7  A    between atoms: N_20  and  C_19 
REMARK       I    between atoms: C_22  and  N_20 
ROOT
ATOM      1  C   LIG d   1      -5.492  93.772 118.294  0.00  0.00     0.161 C 
ATOM      2  C   LIG d   1      -6.162  92.841 117.482  0.00  0.00     0.016 C 
ATOM      3  C   LIG d   1      -5.776  91.485 117.371  0.00  0.00     0.038 C 
ATOM      4  C   LIG d   1      -4.780  90.929 118.187  0.00  0.00     0.028 C 
ATOM      5  C   LIG d   1      -3.743  91.945 118.655  0.00  0.00    -0.047 C 
ATOM      6  C   LIG d   1      -4.473  93.158 119.276  0.00  0.00     0.091 C 
ENDROOT
BRANCH   1   7
ATOM      7  O   LIG d   1      -6.452  94.577 119.007  0.00  0.00    -0.368 OA
BRANCH   7   8
ATOM      8  C   LIG d   1      -7.832  94.142 118.930  0.00  0.00     0.119 C 
BRANCH   8   9
ATOM      9  C   LIG d   1      -8.634  95.267 118.247  0.00  0.00     0.028 C 
ATOM     10  C   LIG d   1      -7.864  96.598 118.210  0.00  0.00     0.006 C 
ENDBRANCH   8   9
BRANCH   8  11
ATOM     11  C   LIG d   1      -8.447  93.994 120.324  0.00  0.00     0.028 C 
ATOM     12  C   LIG d   1      -9.957  94.282 120.343  0.00  0.00     0.006 C 
ENDBRANCH   8  11
ENDBRANCH   7   8
ENDBRANCH   1   7
BRANCH   6  13
ATOM     13  N   LIG d   1      -3.535  94.236 119.683  0.00  0.00    -0.311 N 
ATOM     14  C   LIG d   1      -3.028  94.343 120.910  0.00  0.00     0.210 C 
ATOM     15  C   LIG d   1      -2.097  95.540 121.123  0.00  0.00     0.109 C 
ATOM     16  O   LIG d   1      -3.237  93.541 121.833  0.00  0.00    -0.276 OA
ATOM     17  H   LIG d   1      -3.287  94.912 118.987  0.00  0.00     0.149 HD
ENDBRANCH   6  13
BRANCH   5  18
ATOM     18  N   LIG d   1      -2.846  91.261 119.605  0.00  0.00     0.381 N 
ATOM     19  H   LIG d   1      -3.324  90.489 120.027  0.00  0.00    -0.090 HD
ATOM     20  H   LIG d   1      -2.588  91.906 120.331  0.00  0.00    -0.090 HD
ATOM     21  H   LIG d   1      -2.031  90.938 119.133  0.00  0.00    -0.090 HD
ENDBRANCH   5  18
BRANCH   3  22
ATOM     22  C   LIG d   1      -6.364  90.680 116.407  0.00  0.00     0.382 C 
ATOM     23  O   LIG d   1      -7.582  90.812 116.138  0.00  0.00    -0.241 OA
ATOM     24  O   LIG d   1      -5.701  89.794 115.835  0.00  0.00    -0.241 OA
ENDBRANCH   3  22
TORSDOF 7
ENDMDL
MODEL 5
REMARK VINA RESULT:      -4.4      2.256      5.193
REMARK  7 active torsions:
REMARK  status: ('A' for Active; 'I' for Inactive)
REMARK    1  A    between atoms: C_2  and  C_3 
REMARK    2  A    between atoms: C_3  and  O_6 
REMARK    3  A    between atoms: C_3  and  C_4 
REMARK    4  A    between atoms: C_7  and  O_6 
REMARK    5  A    between atoms: C_9  and  C_10 
REMARK    6  A    between atoms: N_15  and  C_14 
REMARK    7  A    between atoms: N_20  and  C_19 
REMARK       I    between atoms: C_22  and  N_20 
ROOT
ATOM      1  C   LIG d   1      -4.598  93.454 118.976  0.00  0.00     0.161 C 
ATOM      2  C   LIG d   1      -5.750  94.251 118.869  0.00  0.00     0.016 C 
ATOM      3  C   LIG d   1      -6.850  93.922 118.044  0.00  0.00     0.038 C 
ATOM      4  C   LIG d   1      -6.937  92.688 117.381  0.00  0.00     0.028 C 
ATOM      5  C   LIG d   1      -5.577  92.077 117.060  0.00  0.00    -0.047 C 
ATOM      6  C   LIG d   1      -4.721  92.051 118.347  0.00  0.00     0.091 C 
ENDROOT
BRANCH   1   7
ATOM      7  O   LIG d   1      -4.202  93.351 120.358  0.00  0.00    -0.368 OA
BRANCH   7   8
ATOM      8  C   LIG d   1      -2.944  93.977 120.709  0.00  0.00     0.119 C 
BRANCH   8   9
ATOM      9  C   LIG d   1      -2.196  93.017 121.654  0.00  0.00     0.028 C 
ATOM     10  C   LIG d   1      -1.092  92.226 120.933  0.00  0.00     0.006 C 
ENDBRANCH   8   9
BRANCH   8  11
ATOM     11  C   LIG d   1      -3.166  95.256 121.523  0.00  0.00     0.028 C 
ATOM     12  C   LIG d   1      -3.082  96.529 120.668  0.00  0.00     0.006 C 
ENDBRANCH   8  11
ENDBRANCH   7   8
ENDBRANCH   1   7
BRANCH   6  13
ATOM     13  N   LIG d   1      -3.346  91.545 118.102  0.00  0.00    -0.311 N 
ATOM     14  C   LIG d   1      -3.007  90.261 118.207  0.00  0.00     0.210 C 
ATOM     15  C   LIG d   1      -1.531  89.956 117.932  0.00  0.00     0.109 C 
ATOM     16  O   LIG d   1      -3.796  89.341 118.470  0.00  0.00    -0.276 OA
ATOM     17  H   LIG d   1      -2.649  92.219 117.853  0.00  0.00     0.149 HD
ENDBRANCH   6  13
BRANCH   5  18
ATOM     18  N   LIG d   1      -5.815  90.734 116.496  0.00  0.00     0.381 N 
ATOM     19  H   LIG d   1      -4.942  90.262 116.367  0.00  0.00    -0.090 HD
ATOM     20  H   LIG d   1      -6.257  90.832 115.599  0.00  0.00    -0.090 HD
ATOM     21  H   LIG d   1      -6.399  90.206 117.107  0.00  0.00    -0.090 HD
ENDBRANCH   5  18
BRANCH   3  22
ATOM     22  C   LIG d   1      -7.861  94.849 117.844  0.00  0.00     0.382 C 
ATOM     23  O   LIG d   1      -7.611  96.076 117.926  0.00  0.00    -0.241 OA
ATOM     24  O   LIG d   1      -9.029  94.474 117.627  0.00  0.00    -0.241 OA
ENDBRANCH   3  22
TORSDOF 7
ENDMDL
MODEL 6
REMARK VINA RESULT:      -4.4      5.923      8.692
REMARK  7 active torsions:
REMARK  status: ('A' for Active; 'I' for Inactive)
REMARK    1  A    between atoms: C_2  and  C_3 
REMARK    2  A    between atoms: C_3  and  O_6 
REMARK    3  A    between atoms: C_3  and  C_4 
REMARK    4  A    between atoms: C_7  and  O_6 
REMARK    5  A    between atoms: C_9  and  C_10 
REMARK    6  A    between atoms: N_15  and  C_14 
REMARK    7  A    between atoms: N_20  and  C_19 
REMARK       I    between atoms: C_22  and  N_20 
ROOT
ATOM      1  C   LIG d   1       0.172  90.965 116.971  0.00  0.00     0.161 C 
ATOM      2  C   LIG d   1       1.549  91.073 116.714  0.00  0.00     0.016 C 
ATOM      3  C   LIG d   1       2.413  91.917 117.448  0.00  0.00     0.038 C 
ATOM      4  C   LIG d   1       1.984  92.602 118.595  0.00  0.00     0.028 C 
ATOM      5  C   LIG d   1       0.492  92.916 118.589  0.00  0.00    -0.047 C 
ATOM      6  C   LIG d   1      -0.293  91.619 118.288  0.00  0.00     0.091 C 
ENDROOT
BRANCH   1   7
ATOM      7  O   LIG d   1      -0.225  89.580 116.932  0.00  0.00    -0.368 OA
BRANCH   7   8
ATOM      8  C   LIG d   1       0.008  88.816 118.140  0.00  0.00     0.119 C 
BRANCH   8   9
ATOM      9  C   LIG d   1       0.957  87.657 117.780  0.00  0.00     0.028 C 
ATOM     10  C   LIG d   1       0.876  87.273 116.293  0.00  0.00     0.006 C 
ENDBRANCH   8   9
BRANCH   8  11
ATOM     11  C   LIG d   1      -1.279  88.148 118.634  0.00  0.00     0.028 C 
ATOM     12  C   LIG d   1      -2.438  88.273 117.631  0.00  0.00     0.006 C 
ENDBRANCH   8  11
ENDBRANCH   7   8
ENDBRANCH   1   7
BRANCH   6  13
ATOM     13  N   LIG d   1      -1.757  91.855 118.181  0.00  0.00    -0.311 N 
ATOM     14  C   LIG d   1      -2.606  91.667 119.190  0.00  0.00     0.210 C 
ATOM     15  C   LIG d   1      -4.075  91.949 118.860  0.00  0.00     0.109 C 
ATOM     16  O   LIG d   1      -2.277  91.325 120.336  0.00  0.00    -0.276 OA
ATOM     17  H   LIG d   1      -2.106  92.164 117.295  0.00  0.00     0.149 HD
ENDBRANCH   6  13
BRANCH   5  18
ATOM     18  N   LIG d   1       0.155  93.506 119.899  0.00  0.00     0.381 N 
ATOM     19  H   LIG d   1      -0.112  94.463 119.781  0.00  0.00    -0.090 HD
ATOM     20  H   LIG d   1       0.969  93.476 120.487  0.00  0.00    -0.090 HD
ATOM     21  H   LIG d   1      -0.588  92.995 120.321  0.00  0.00    -0.090 HD
ENDBRANCH   5  18
BRANCH   3  22
ATOM     22  C   LIG d   1       3.715  92.114 117.012  0.00  0.00     0.382 C 
ATOM     23  O   LIG d   1       4.338  93.150 117.348  0.00  0.00    -0.241 OA
ATOM     24  O   LIG d   1       4.258  91.290 116.252  0.00  0.00    -0.241 OA
ENDBRANCH   3  22
TORSDOF 7
ENDMDL
MODEL 7
REMARK VINA RESULT:      -4.3      1.830      2.278
REMARK  7 active torsions:
REMARK  status: ('A' for Active; 'I' for Inactive)
REMARK    1  A    between atoms: C_2  and  C_3 
REMARK    2  A    between atoms: C_3  and  O_6 
REMARK    3  A    between atoms: C_3  and  C_4 
REMARK    4  A    between atoms: C_7  and  O_6 
REMARK    5  A    between atoms: C_9  and  C_10 
REMARK    6  A    between atoms: N_15  and  C_14 
REMARK    7  A    between atoms: N_20  and  C_19 
REMARK       I    between atoms: C_22  and  N_20 
ROOT
ATOM      1  C   LIG d   1      -4.963  93.425 118.389  0.00  0.00     0.161 C 
ATOM      2  C   LIG d   1      -5.804  92.663 117.562  0.00  0.00     0.016 C 
ATOM      3  C   LIG d   1      -5.611  91.284 117.315  0.00  0.00     0.038 C 
ATOM      4  C   LIG d   1      -4.645  90.535 118.003  0.00  0.00     0.028 C 
ATOM      5  C   LIG d   1      -3.452  91.366 118.466  0.00  0.00    -0.047 C 
ATOM      6  C   LIG d   1      -3.970  92.602 119.236  0.00  0.00     0.091 C 
ENDROOT
BRANCH   1   7
ATOM      7  O   LIG d   1      -5.755  94.280 119.236  0.00  0.00    -0.368 OA
BRANCH   7   8
ATOM      8  C   LIG d   1      -7.060  93.774 119.612  0.00  0.00     0.119 C 
BRANCH   8   9
ATOM      9  C   LIG d   1      -8.059  94.941 119.498  0.00  0.00     0.028 C 
ATOM     10  C   LIG d   1      -8.770  94.975 118.135  0.00  0.00     0.006 C 
ENDBRANCH   8   9
BRANCH   8  11
ATOM     11  C   LIG d   1      -7.092  93.354 121.084  0.00  0.00     0.028 C 
ATOM     12  C   LIG d   1      -6.041  94.084 121.935  0.00  0.00     0.006 C 
ENDBRANCH   8  11
ENDBRANCH   7   8
ENDBRANCH   1   7
BRANCH   6  13
ATOM     13  N   LIG d   1      -2.870  93.512 119.651  0.00  0.00    -0.311 N 
ATOM     14  C   LIG d   1      -2.296  93.468 120.852  0.00  0.00     0.210 C 
ATOM     15  C   LIG d   1      -1.196  94.509 121.081  0.00  0.00     0.109 C 
ATOM     16  O   LIG d   1      -2.572  92.645 121.738  0.00  0.00    -0.276 OA
ATOM     17  H   LIG d   1      -2.563  94.191 118.982  0.00  0.00     0.149 HD
ENDBRANCH   6  13
BRANCH   5  18
ATOM     18  N   LIG d   1      -2.592  90.492 119.286  0.00  0.00     0.381 N 
ATOM     19  H   LIG d   1      -2.000  89.946 118.693  0.00  0.00    -0.090 HD
ATOM     20  H   LIG d   1      -3.174  89.865 119.814  0.00  0.00    -0.090 HD
ATOM     21  H   LIG d   1      -2.038  91.042 119.905  0.00  0.00    -0.090 HD
ENDBRANCH   5  18
BRANCH   3  22
ATOM     22  C   LIG d   1      -6.365  90.648 116.340  0.00  0.00     0.382 C 
ATOM     23  O   LIG d   1      -5.894  89.659 115.729  0.00  0.00    -0.241 OA
ATOM     24  O   LIG d   1      -7.492  91.079 116.032  0.00  0.00    -0.241 OA
ENDBRANCH   3  22
TORSDOF 7
ENDMDL
MODEL 8
REMARK VINA RESULT:      -4.3      2.336      4.353
REMARK  7 active torsions:
REMARK  status: ('A' for Active; 'I' for Inactive)
REMARK    1  A    between atoms: C_2  and  C_3 
REMARK    2  A    between atoms: C_3  and  O_6 
REMARK    3  A    between atoms: C_3  and  C_4 
REMARK    4  A    between atoms: C_7  and  O_6 
REMARK    5  A    between atoms: C_9  and  C_10 
REMARK    6  A    between atoms: N_15  and  C_14 
REMARK    7  A    between atoms: N_20  and  C_19 
REMARK       I    between atoms: C_22  and  N_20 
ROOT
ATOM      1  C   LIG d   1      -4.831  92.865 119.278  0.00  0.00     0.161 C 
ATOM      2  C   LIG d   1      -3.800  91.929 119.092  0.00  0.00     0.016 C 
ATOM      3  C   LIG d   1      -3.913  90.806 118.241  0.00  0.00     0.038 C 
ATOM      4  C   LIG d   1      -5.018  90.624 117.396  0.00  0.00     0.028 C 
ATOM      5  C   LIG d   1      -6.295  91.269 117.922  0.00  0.00    -0.047 C 
ATOM      6  C   LIG d   1      -6.002  92.744 118.280  0.00  0.00     0.091 C 
ENDROOT
BRANCH   1   7
ATOM      7  O   LIG d   1      -4.289  94.200 119.255  0.00  0.00    -0.368 OA
BRANCH   7   8
ATOM      8  C   LIG d   1      -4.235  94.889 120.528  0.00  0.00     0.119 C 
BRANCH   8   9
ATOM      9  C   LIG d   1      -5.359  95.944 120.531  0.00  0.00     0.028 C 
ATOM     10  C   LIG d   1      -6.419  95.669 121.611  0.00  0.00     0.006 C 
ENDBRANCH   8   9
BRANCH   8  11
ATOM     11  C   LIG d   1      -2.934  95.682 120.679  0.00  0.00     0.028 C 
ATOM     12  C   LIG d   1      -3.112  97.180 120.389  0.00  0.00     0.006 C 
ENDBRANCH   8  11
ENDBRANCH   7   8
ENDBRANCH   1   7
BRANCH   6  13
ATOM     13  N   LIG d   1      -7.177  93.426 118.881  0.00  0.00    -0.311 N 
ATOM     14  C   LIG d   1      -8.098  94.069 118.164  0.00  0.00     0.210 C 
ATOM     15  C   LIG d   1      -9.217  94.719 118.983  0.00  0.00     0.109 C 
ATOM     16  O   LIG d   1      -8.111  94.134 116.926  0.00  0.00    -0.276 OA
ATOM     17  H   LIG d   1      -7.261  93.396 119.878  0.00  0.00     0.149 HD
ENDBRANCH   6  13
BRANCH   5  18
ATOM     18  N   LIG d   1      -7.330  91.122 116.881  0.00  0.00     0.381 N 
ATOM     19  H   LIG d   1      -8.204  91.469 117.221  0.00  0.00    -0.090 HD
ATOM     20  H   LIG d   1      -7.440  90.146 116.667  0.00  0.00    -0.090 HD
ATOM     21  H   LIG d   1      -7.063  91.621 116.061  0.00  0.00    -0.090 HD
ENDBRANCH   5  18
BRANCH   3  22
ATOM     22  C   LIG d   1      -2.930  89.828 118.259  0.00  0.00     0.382 C 
ATOM     23  O   LIG d   1      -1.721  90.153 118.171  0.00  0.00    -0.241 OA
ATOM     24  O   LIG d   1      -3.238  88.623 118.317  0.00  0.00    -0.241 OA
ENDBRANCH   3  22
TORSDOF 7
ENDMDL
MODEL 9
REMARK VINA RESULT:      -4.1      3.136      6.265
REMARK  7 active torsions:
REMARK  status: ('A' for Active; 'I' for Inactive)
REMARK    1  A    between atoms: C_2  and  C_3 
REMARK    2  A    between atoms: C_3  and  O_6 
REMARK    3  A    between atoms: C_3  and  C_4 
REMARK    4  A    between atoms: C_7  and  O_6 
REMARK    5  A    between atoms: C_9  and  C_10 
REMARK    6  A    between atoms: N_15  and  C_14 
REMARK    7  A    between atoms: N_20  and  C_19 
REMARK       I    between atoms: C_22  and  N_20 
ROOT
ATOM      1  C   LIG d   1      -3.036  92.486 119.341  0.00  0.00     0.161 C 
ATOM      2  C   LIG d   1      -2.772  93.697 120.001  0.00  0.00     0.016 C 
ATOM      3  C   LIG d   1      -1.482  94.083 120.432  0.00  0.00     0.038 C 
ATOM      4  C   LIG d   1      -0.336  93.347 120.094  0.00  0.00     0.028 C 
ATOM      5  C   LIG d   1      -0.614  91.865 119.867  0.00  0.00    -0.047 C 
ATOM      6  C   LIG d   1      -1.783  91.721 118.866  0.00  0.00     0.091 C 
ENDROOT
BRANCH   1   7
ATOM      7  O   LIG d   1      -3.931  92.717 118.235  0.00  0.00    -0.368 OA
BRANCH   7   8
ATOM      8  C   LIG d   1      -5.317  92.354 118.450  0.00  0.00     0.119 C 
BRANCH   8   9
ATOM      9  C   LIG d   1      -5.646  91.193 117.492  0.00  0.00     0.028 C 
ATOM     10  C   LIG d   1      -6.461  91.652 116.271  0.00  0.00     0.006 C 
ENDBRANCH   8   9
BRANCH   8  11
ATOM     11  C   LIG d   1      -6.260  93.492 118.047  0.00  0.00     0.028 C 
ATOM     12  C   LIG d   1      -6.325  94.612 119.097  0.00  0.00     0.006 C 
ENDBRANCH   8  11
ENDBRANCH   7   8
ENDBRANCH   1   7
BRANCH   6  13
ATOM     13  N   LIG d   1      -2.175  90.304 118.652  0.00  0.00    -0.311 N 
ATOM     14  C   LIG d   1      -1.637  89.528 117.712  0.00  0.00     0.210 C 
ATOM     15  C   LIG d   1      -2.199  88.104 117.649  0.00  0.00     0.109 C 
ATOM     16  O   LIG d   1      -0.725  89.874 116.946  0.00  0.00    -0.276 OA
ATOM     17  H   LIG d   1      -2.887  89.932 119.250  0.00  0.00     0.149 HD
ENDBRANCH   6  13
BRANCH   5  18
ATOM     18  N   LIG d   1       0.636  91.245 119.388  0.00  0.00     0.381 N 
ATOM     19  H   LIG d   1       1.422  91.762 119.729  0.00  0.00    -0.090 HD
ATOM     20  H   LIG d   1       0.650  91.275 118.384  0.00  0.00    -0.090 HD
ATOM     21  H   LIG d   1       0.690  90.301 119.701  0.00  0.00    -0.090 HD
ENDBRANCH   5  18
BRANCH   3  22
ATOM     22  C   LIG d   1      -1.333  95.198 121.243  0.00  0.00     0.382 C 
ATOM     23  O   LIG d   1      -2.013  95.305 122.292  0.00  0.00    -0.241 OA
ATOM     24  O   LIG d   1      -0.560  96.118 120.917  0.00  0.00    -0.241 OA
ENDBRANCH   3  22
TORSDOF 7
ENDMDL
