MODEL 1
REMARK VINA RESULT:      -5.0      0.000      0.000
REMARK  7 active torsions:
REMARK  status: ('A' for Active; 'I' for Inactive)
REMARK    1  A    between atoms: C_2  and  C_3 
REMARK    2  A    between atoms: C_3  and  O_6 
REMARK    3  A    between atoms: C_3  and  C_4 
REMARK    4  A    between atoms: C_7  and  O_6 
REMARK    5  A    between atoms: C_9  and  C_10 
REMARK    6  A    between atoms: N_15  and  C_14 
REMARK    7  A    between atoms: N_20  and  C_19 
REMARK       I    between atoms: C_22  and  N_20 
ROOT
ATOM      1  C   LIG d   1      -3.330  90.295 118.262  0.00  0.00     0.161 C 
ATOM      2  C   LIG d   1      -4.091  89.689 117.248  0.00  0.00     0.016 C 
ATOM      3  C   LIG d   1      -5.294  90.237 116.746  0.00  0.00     0.038 C 
ATOM      4  C   LIG d   1      -5.741  91.512 117.121  0.00  0.00     0.028 C 
ATOM      5  C   LIG d   1      -5.274  91.934 118.510  0.00  0.00    -0.047 C 
ATOM      6  C   LIG d   1      -3.743  91.741 118.604  0.00  0.00     0.091 C 
ENDROOT
BRANCH   1   7
ATOM      7  O   LIG d   1      -1.931  90.241 117.920  0.00  0.00    -0.368 OA
BRANCH   7   8
ATOM      8  C   LIG d   1      -1.107  89.377 118.741  0.00  0.00     0.119 C 
BRANCH   8   9
ATOM      9  C   LIG d   1      -1.977  88.884 119.913  0.00  0.00     0.028 C 
ATOM     10  C   LIG d   1      -1.358  89.211 121.282  0.00  0.00     0.006 C 
ENDBRANCH   8   9
BRANCH   8  11
ATOM     11  C   LIG d   1       0.043  90.154 119.388  0.00  0.00     0.028 C 
ATOM     12  C   LIG d   1       0.617  91.244 118.470  0.00  0.00     0.006 C 
ENDBRANCH   8  11
ENDBRANCH   7   8
ENDBRANCH   1   7
BRANCH   6  13
ATOM     13  N   LIG d   1      -3.215  92.051 119.959  0.00  0.00    -0.311 N 
ATOM     14  C   LIG d   1      -2.283  92.974 120.188  0.00  0.00     0.210 C 
ATOM     15  C   LIG d   1      -1.866  93.120 121.655  0.00  0.00     0.109 C 
ATOM     16  O   LIG d   1      -1.785  93.708 119.321  0.00  0.00    -0.276 OA
ATOM     17  H   LIG d   1      -3.587  91.524 120.725  0.00  0.00     0.149 HD
ENDBRANCH   6  13
BRANCH   5  18
ATOM     18  N   LIG d   1      -5.694  93.333 118.716  0.00  0.00     0.381 N 
ATOM     19  H   LIG d   1      -6.472  93.544 118.123  0.00  0.00    -0.090 HD
ATOM     20  H   LIG d   1      -4.934  93.941 118.467  0.00  0.00    -0.090 HD
ATOM     21  H   LIG d   1      -5.946  93.477 119.669  0.00  0.00    -0.090 HD
ENDBRANCH   5  18
BRANCH   3  22
ATOM     22  C   LIG d   1      -6.085  89.487 115.888  0.00  0.00     0.382 C 
ATOM     23  O   LIG d   1      -5.714  88.343 115.533  0.00  0.00    -0.241 OA
ATOM     24  O   LIG d   1      -7.143  89.959 115.430  0.00  0.00    -0.241 OA
ENDBRANCH   3  22
TORSDOF 7
ENDMDL
MODEL 2
REMARK VINA RESULT:      -4.8      2.411      4.851
REMARK  7 active torsions:
REMARK  status: ('A' for Active; 'I' for Inactive)
REMARK    1  A    between atoms: C_2  and  C_3 
REMARK    2  A    between atoms: C_3  and  O_6 
REMARK    3  A    between atoms: C_3  and  C_4 
REMARK    4  A    between atoms: C_7  and  O_6 
REMARK    5  A    between atoms: C_9  and  C_10 
REMARK    6  A    between atoms: N_15  and  C_14 
REMARK    7  A    between atoms: N_20  and  C_19 
REMARK       I    between atoms: C_22  and  N_20 
ROOT
ATOM      1  C   LIG d   1      -5.399  92.055 118.571  0.00  0.00     0.161 C 
ATOM      2  C   LIG d   1      -6.065  91.186 117.691  0.00  0.00     0.016 C 
ATOM      3  C   LIG d   1      -5.406  90.188 116.936  0.00  0.00     0.038 C 
ATOM      4  C   LIG d   1      -4.049  89.890 117.126  0.00  0.00     0.028 C 
ATOM      5  C   LIG d   1      -3.234  91.074 117.633  0.00  0.00    -0.047 C 
ATOM      6  C   LIG d   1      -3.935  91.671 118.875  0.00  0.00     0.091 C 
ENDROOT
BRANCH   1   7
ATOM      7  O   LIG d   1      -6.149  92.178 119.796  0.00  0.00    -0.368 OA
BRANCH   7   8
ATOM      8  C   LIG d   1      -7.267  93.099 119.768  0.00  0.00     0.119 C 
BRANCH   8   9
ATOM      9  C   LIG d   1      -6.724  94.474 119.331  0.00  0.00     0.028 C 
ATOM     10  C   LIG d   1      -7.817  95.369 118.722  0.00  0.00     0.006 C 
ENDBRANCH   8   9
BRANCH   8  11
ATOM     11  C   LIG d   1      -7.843  93.318 121.171  0.00  0.00     0.028 C 
ATOM     12  C   LIG d   1      -9.359  93.078 121.236  0.00  0.00     0.006 C 
ENDBRANCH   8  11
ENDBRANCH   7   8
ENDBRANCH   1   7
BRANCH   6  13
ATOM     13  N   LIG d   1      -3.248  92.886 119.385  0.00  0.00    -0.311 N 
ATOM     14  C   LIG d   1      -2.348  92.862 120.366  0.00  0.00     0.210 C 
ATOM     15  C   LIG d   1      -1.775  94.229 120.752  0.00  0.00     0.109 C 
ATOM     16  O   LIG d   1      -1.945  91.834 120.931  0.00  0.00    -0.276 OA
ATOM     17  H   LIG d   1      -3.492  93.760 118.961  0.00  0.00     0.149 HD
ENDBRANCH   6  13
BRANCH   5  18
ATOM     18  N   LIG d   1      -1.870  90.587 117.918  0.00  0.00     0.381 N 
ATOM     19  H   LIG d   1      -1.418  90.328 117.064  0.00  0.00    -0.090 HD
ATOM     20  H   LIG d   1      -1.932  89.772 118.503  0.00  0.00    -0.090 HD
ATOM     21  H   LIG d   1      -1.344  91.297 118.379  0.00  0.00    -0.090 HD
ENDBRANCH   5  18
BRANCH   3  22
ATOM     22  C   LIG d   1      -6.100  89.504 115.949  0.00  0.00     0.382 C 
ATOM     23  O   LIG d   1      -7.121  90.016 115.430  0.00  0.00    -0.241 OA
ATOM     24  O   LIG d   1      -5.743  88.361 115.604  0.00  0.00    -0.241 OA
ENDBRANCH   3  22
TORSDOF 7
ENDMDL
MODEL 3
REMARK VINA RESULT:      -4.8      2.474      4.602
REMARK  7 active torsions:
REMARK  status: ('A' for Active; 'I' for Inactive)
REMARK    1  A    between atoms: C_2  and  C_3 
REMARK    2  A    between atoms: C_3  and  O_6 
REMARK    3  A    between atoms: C_3  and  C_4 
REMARK    4  A    between atoms: C_7  and  O_6 
REMARK    5  A    between atoms: C_9  and  C_10 
REMARK    6  A    between atoms: N_15  and  C_14 
REMARK    7  A    between atoms: N_20  and  C_19 
REMARK       I    between atoms: C_22  and  N_20 
ROOT
ATOM      1  C   LIG d   1      -5.590  92.076 118.622  0.00  0.00     0.161 C 
ATOM      2  C   LIG d   1      -6.179  91.158 117.737  0.00  0.00     0.016 C 
ATOM      3  C   LIG d   1      -5.439  90.218 116.983  0.00  0.00     0.038 C 
ATOM      4  C   LIG d   1      -4.063  90.030 117.179  0.00  0.00     0.028 C 
ATOM      5  C   LIG d   1      -3.348  91.275 117.693  0.00  0.00    -0.047 C 
ATOM      6  C   LIG d   1      -4.102  91.810 118.932  0.00  0.00     0.091 C 
ENDROOT
BRANCH   1   7
ATOM      7  O   LIG d   1      -6.353  92.136 119.844  0.00  0.00    -0.368 OA
BRANCH   7   8
ATOM      8  C   LIG d   1      -7.032  93.387 120.110  0.00  0.00     0.119 C 
BRANCH   8   9
ATOM      9  C   LIG d   1      -8.530  93.073 120.286  0.00  0.00     0.028 C 
ATOM     10  C   LIG d   1      -9.281  94.191 121.029  0.00  0.00     0.006 C 
ENDBRANCH   8   9
BRANCH   8  11
ATOM     11  C   LIG d   1      -6.954  94.331 118.906  0.00  0.00     0.028 C 
ATOM     12  C   LIG d   1      -6.298  95.679 119.247  0.00  0.00     0.006 C 
ENDBRANCH   8  11
ENDBRANCH   7   8
ENDBRANCH   1   7
BRANCH   6  13
ATOM     13  N   LIG d   1      -3.517  93.076 119.448  0.00  0.00    -0.311 N 
ATOM     14  C   LIG d   1      -3.165  93.256 120.720  0.00  0.00     0.210 C 
ATOM     15  C   LIG d   1      -2.601  94.642 121.044  0.00  0.00     0.109 C 
ATOM     16  O   LIG d   1      -3.238  92.389 121.603  0.00  0.00    -0.276 OA
ATOM     17  H   LIG d   1      -3.394  93.822 118.792  0.00  0.00     0.149 HD
ENDBRANCH   6  13
BRANCH   5  18
ATOM     18  N   LIG d   1      -1.952  90.898 117.984  0.00  0.00     0.381 N 
ATOM     19  H   LIG d   1      -1.894  89.914 118.154  0.00  0.00    -0.090 HD
ATOM     20  H   LIG d   1      -1.651  91.380 118.812  0.00  0.00    -0.090 HD
ATOM     21  H   LIG d   1      -1.366  91.144 117.216  0.00  0.00    -0.090 HD
ENDBRANCH   5  18
BRANCH   3  22
ATOM     22  C   LIG d   1      -6.071  89.482 115.992  0.00  0.00     0.382 C 
ATOM     23  O   LIG d   1      -5.565  88.406 115.593  0.00  0.00    -0.241 OA
ATOM     24  O   LIG d   1      -7.116  89.903 115.462  0.00  0.00    -0.241 OA
ENDBRANCH   3  22
TORSDOF 7
ENDMDL
MODEL 4
REMARK VINA RESULT:      -4.7      2.527      4.412
REMARK  7 active torsions:
REMARK  status: ('A' for Active; 'I' for Inactive)
REMARK    1  A    between atoms: C_2  and  C_3 
REMARK    2  A    between atoms: C_3  and  O_6 
REMARK    3  A    between atoms: C_3  and  C_4 
REMARK    4  A    between atoms: C_7  and  O_6 
REMARK    5  A    between atoms: C_9  and  C_10 
REMARK    6  A    between atoms: N_15  and  C_14 
REMARK    7  A    between atoms: N_20  and  C_19 
REMARK       I    between atoms: C_22  and  N_20 
ROOT
ATOM      1  C   LIG d   1      -4.930  91.721 118.699  0.00  0.00     0.161 C 
ATOM      2  C   LIG d   1      -6.185  92.338 118.571  0.00  0.00     0.016 C 
ATOM      3  C   LIG d   1      -6.525  93.551 119.214  0.00  0.00     0.038 C 
ATOM      4  C   LIG d   1      -5.575  94.311 119.912  0.00  0.00     0.028 C 
ATOM      5  C   LIG d   1      -4.436  93.477 120.488  0.00  0.00    -0.047 C 
ATOM      6  C   LIG d   1      -3.845  92.593 119.366  0.00  0.00     0.091 C 
ENDROOT
BRANCH   1   7
ATOM      7  O   LIG d   1      -4.479  91.259 117.410  0.00  0.00    -0.368 OA
BRANCH   7   8
ATOM      8  C   LIG d   1      -4.957  89.956 116.997  0.00  0.00     0.119 C 
BRANCH   8   9
ATOM      9  C   LIG d   1      -3.737  89.146 116.517  0.00  0.00     0.028 C 
ATOM     10  C   LIG d   1      -2.810  88.739 117.675  0.00  0.00     0.006 C 
ENDBRANCH   8   9
BRANCH   8  11
ATOM     11  C   LIG d   1      -5.879  90.061 115.778  0.00  0.00     0.028 C 
ATOM     12  C   LIG d   1      -7.066  89.087 115.843  0.00  0.00     0.006 C 
ENDBRANCH   8  11
ENDBRANCH   7   8
ENDBRANCH   1   7
BRANCH   6  13
ATOM     13  N   LIG d   1      -2.780  91.683 119.863  0.00  0.00    -0.311 N 
ATOM     14  C   LIG d   1      -1.510  91.759 119.471  0.00  0.00     0.210 C 
ATOM     15  C   LIG d   1      -0.578  90.713 120.092  0.00  0.00     0.109 C 
ATOM     16  O   LIG d   1      -1.059  92.614 118.694  0.00  0.00    -0.276 OA
ATOM     17  H   LIG d   1      -3.052  90.979 120.521  0.00  0.00     0.149 HD
ENDBRANCH   6  13
BRANCH   5  18
ATOM     18  N   LIG d   1      -3.451  94.409 121.068  0.00  0.00     0.381 N 
ATOM     19  H   LIG d   1      -2.803  93.905 121.640  0.00  0.00    -0.090 HD
ATOM     20  H   LIG d   1      -3.933  95.073 121.648  0.00  0.00    -0.090 HD
ATOM     21  H   LIG d   1      -2.962  94.885 120.342  0.00  0.00    -0.090 HD
ENDBRANCH   5  18
BRANCH   3  22
ATOM     22  C   LIG d   1      -7.839  93.994 119.195  0.00  0.00     0.382 C 
ATOM     23  O   LIG d   1      -8.195  94.866 118.367  0.00  0.00    -0.241 OA
ATOM     24  O   LIG d   1      -8.662  93.564 120.025  0.00  0.00    -0.241 OA
ENDBRANCH   3  22
TORSDOF 7
ENDMDL
MODEL 5
REMARK VINA RESULT:      -4.7      2.568      6.265
REMARK  7 active torsions:
REMARK  status: ('A' for Active; 'I' for Inactive)
REMARK    1  A    between atoms: C_2  and  C_3 
REMARK    2  A    between atoms: C_3  and  O_6 
REMARK    3  A    between atoms: C_3  and  C_4 
REMARK    4  A    between atoms: C_7  and  O_6 
REMARK    5  A    between atoms: C_9  and  C_10 
REMARK    6  A    between atoms: N_15  and  C_14 
REMARK    7  A    between atoms: N_20  and  C_19 
REMARK       I    between atoms: C_22  and  N_20 
ROOT
ATOM      1  C   LIG d   1      -5.253  91.668 118.869  0.00  0.00     0.161 C 
ATOM      2  C   LIG d   1      -4.287  92.323 119.651  0.00  0.00     0.016 C 
ATOM      3  C   LIG d   1      -2.898  92.094 119.524  0.00  0.00     0.038 C 
ATOM      4  C   LIG d   1      -2.368  91.301 118.496  0.00  0.00     0.028 C 
ATOM      5  C   LIG d   1      -3.330  90.225 118.004  0.00  0.00    -0.047 C 
ATOM      6  C   LIG d   1      -4.688  90.882 117.667  0.00  0.00     0.091 C 
ENDROOT
BRANCH   1   7
ATOM      7  O   LIG d   1      -6.247  92.613 118.427  0.00  0.00    -0.368 OA
BRANCH   7   8
ATOM      8  C   LIG d   1      -6.704  93.567 119.417  0.00  0.00     0.119 C 
BRANCH   8   9
ATOM      9  C   LIG d   1      -7.897  92.931 120.156  0.00  0.00     0.028 C 
ATOM     10  C   LIG d   1      -7.612  92.712 121.652  0.00  0.00     0.006 C 
ENDBRANCH   8   9
BRANCH   8  11
ATOM     11  C   LIG d   1      -7.264  94.831 118.757  0.00  0.00     0.028 C 
ATOM     12  C   LIG d   1      -6.590  96.116 119.263  0.00  0.00     0.006 C 
ENDBRANCH   8  11
ENDBRANCH   7   8
ENDBRANCH   1   7
BRANCH   6  13
ATOM     13  N   LIG d   1      -5.714  89.887 117.258  0.00  0.00    -0.311 N 
ATOM     14  C   LIG d   1      -6.518  90.052 116.210  0.00  0.00     0.210 C 
ATOM     15  C   LIG d   1      -7.517  88.914 115.976  0.00  0.00     0.109 C 
ATOM     16  O   LIG d   1      -6.477  91.017 115.432  0.00  0.00    -0.276 OA
ATOM     17  H   LIG d   1      -5.794  89.059 117.816  0.00  0.00     0.149 HD
ENDBRANCH   6  13
BRANCH   5  18
ATOM     18  N   LIG d   1      -2.704  89.564 116.843  0.00  0.00     0.381 N 
ATOM     19  H   LIG d   1      -3.270  88.795 116.545  0.00  0.00    -0.090 HD
ATOM     20  H   LIG d   1      -1.806  89.207 117.118  0.00  0.00    -0.090 HD
ATOM     21  H   LIG d   1      -2.597  90.215 116.097  0.00  0.00    -0.090 HD
ENDBRANCH   5  18
BRANCH   3  22
ATOM     22  C   LIG d   1      -2.025  92.632 120.458  0.00  0.00     0.382 C 
ATOM     23  O   LIG d   1      -2.258  92.499 121.683  0.00  0.00    -0.241 OA
ATOM     24  O   LIG d   1      -1.030  93.285 120.090  0.00  0.00    -0.241 OA
ENDBRANCH   3  22
TORSDOF 7
ENDMDL
MODEL 6
REMARK VINA RESULT:      -4.3      2.906      5.671
REMARK  7 active torsions:
REMARK  status: ('A' for Active; 'I' for Inactive)
REMARK    1  A    between atoms: C_2  and  C_3 
REMARK    2  A    between atoms: C_3  and  O_6 
REMARK    3  A    between atoms: C_3  and  C_4 
REMARK    4  A    between atoms: C_7  and  O_6 
REMARK    5  A    between atoms: C_9  and  C_10 
REMARK    6  A    between atoms: N_15  and  C_14 
REMARK    7  A    between atoms: N_20  and  C_19 
REMARK       I    between atoms: C_22  and  N_20 
ROOT
ATOM      1  C   LIG d   1      -0.892  92.501 118.344  0.00  0.00     0.161 C 
ATOM      2  C   LIG d   1       0.264  91.828 117.915  0.00  0.00     0.016 C 
ATOM      3  C   LIG d   1       1.573  92.326 118.114  0.00  0.00     0.038 C 
ATOM      4  C   LIG d   1       1.822  93.464 118.894  0.00  0.00     0.028 C 
ATOM      5  C   LIG d   1       0.658  94.449 118.918  0.00  0.00    -0.047 C 
ATOM      6  C   LIG d   1      -0.634  93.689 119.294  0.00  0.00     0.091 C 
ENDROOT
BRANCH   1   7
ATOM      7  O   LIG d   1      -1.806  91.565 118.949  0.00  0.00    -0.368 OA
BRANCH   7   8
ATOM      8  C   LIG d   1      -3.066  91.368 118.260  0.00  0.00     0.119 C 
BRANCH   8   9
ATOM      9  C   LIG d   1      -4.192  91.766 119.233  0.00  0.00     0.028 C 
ATOM     10  C   LIG d   1      -3.732  91.753 120.701  0.00  0.00     0.006 C 
ENDBRANCH   8   9
BRANCH   8  11
ATOM     11  C   LIG d   1      -3.304  89.888 117.947  0.00  0.00     0.028 C 
ATOM     12  C   LIG d   1      -2.330  88.958 118.687  0.00  0.00     0.006 C 
ENDBRANCH   8  11
ENDBRANCH   7   8
ENDBRANCH   1   7
BRANCH   6  13
ATOM     13  N   LIG d   1      -1.836  94.563 119.259  0.00  0.00    -0.311 N 
ATOM     14  C   LIG d   1      -2.329  95.175 120.334  0.00  0.00     0.210 C 
ATOM     15  C   LIG d   1      -3.587  96.012 120.081  0.00  0.00     0.109 C 
ATOM     16  O   LIG d   1      -1.827  95.129 121.467  0.00  0.00    -0.276 OA
ATOM     17  H   LIG d   1      -2.289  94.680 118.373  0.00  0.00     0.149 HD
ENDBRANCH   6  13
BRANCH   5  18
ATOM     18  N   LIG d   1       0.999  95.519 119.875  0.00  0.00     0.381 N 
ATOM     19  H   LIG d   1       0.565  96.375 119.595  0.00  0.00    -0.090 HD
ATOM     20  H   LIG d   1       1.995  95.654 119.871  0.00  0.00    -0.090 HD
ATOM     21  H   LIG d   1       0.695  95.267 120.790  0.00  0.00    -0.090 HD
ENDBRANCH   5  18
BRANCH   3  22
ATOM     22  C   LIG d   1       2.646  91.703 117.494  0.00  0.00     0.382 C 
ATOM     23  O   LIG d   1       2.697  90.451 117.438  0.00  0.00    -0.241 OA
ATOM     24  O   LIG d   1       3.585  92.377 117.030  0.00  0.00    -0.241 OA
ENDBRANCH   3  22
TORSDOF 7
ENDMDL
MODEL 7
REMARK VINA RESULT:      -4.2      2.334      3.694
REMARK  7 active torsions:
REMARK  status: ('A' for Active; 'I' for Inactive)
REMARK    1  A    between atoms: C_2  and  C_3 
REMARK    2  A    between atoms: C_3  and  O_6 
REMARK    3  A    between atoms: C_3  and  C_4 
REMARK    4  A    between atoms: C_7  and  O_6 
REMARK    5  A    between atoms: C_9  and  C_10 
REMARK    6  A    between atoms: N_15  and  C_14 
REMARK    7  A    between atoms: N_20  and  C_19 
REMARK       I    between atoms: C_22  and  N_20 
ROOT
ATOM      1  C   LIG d   1      -0.532  91.461 118.450  0.00  0.00     0.161 C 
ATOM      2  C   LIG d   1      -1.384  90.468 117.938  0.00  0.00     0.016 C 
ATOM      3  C   LIG d   1      -2.793  90.527 118.035  0.00  0.00     0.038 C 
ATOM      4  C   LIG d   1      -3.456  91.663 118.522  0.00  0.00     0.028 C 
ATOM      5  C   LIG d   1      -2.624  92.473 119.510  0.00  0.00    -0.047 C 
ATOM      6  C   LIG d   1      -1.240  92.761 118.885  0.00  0.00     0.091 C 
ENDROOT
BRANCH   1   7
ATOM      7  O   LIG d   1       0.508  91.752 117.495  0.00  0.00    -0.368 OA
BRANCH   7   8
ATOM      8  C   LIG d   1       1.835  91.280 117.834  0.00  0.00     0.119 C 
BRANCH   8   9
ATOM      9  C   LIG d   1       2.708  92.518 118.118  0.00  0.00     0.028 C 
ATOM     10  C   LIG d   1       4.098  92.417 117.466  0.00  0.00     0.006 C 
ENDBRANCH   8   9
BRANCH   8  11
ATOM     11  C   LIG d   1       2.498  90.581 116.643  0.00  0.00     0.028 C 
ATOM     12  C   LIG d   1       1.622  89.470 116.041  0.00  0.00     0.006 C 
ENDBRANCH   8  11
ENDBRANCH   7   8
ENDBRANCH   1   7
BRANCH   6  13
ATOM     13  N   LIG d   1      -0.333  93.476 119.819  0.00  0.00    -0.311 N 
ATOM     14  C   LIG d   1       0.110  94.714 119.607  0.00  0.00     0.210 C 
ATOM     15  C   LIG d   1       1.051  95.258 120.686  0.00  0.00     0.109 C 
ATOM     16  O   LIG d   1      -0.214  95.426 118.644  0.00  0.00    -0.276 OA
ATOM     17  H   LIG d   1      -0.046  92.984 120.643  0.00  0.00     0.149 HD
ENDBRANCH   6  13
BRANCH   5  18
ATOM     18  N   LIG d   1      -3.380  93.699 119.830  0.00  0.00     0.381 N 
ATOM     19  H   LIG d   1      -4.334  93.592 119.547  0.00  0.00    -0.090 HD
ATOM     20  H   LIG d   1      -2.983  94.468 119.319  0.00  0.00    -0.090 HD
ATOM     21  H   LIG d   1      -3.335  93.882 120.808  0.00  0.00    -0.090 HD
ENDBRANCH   5  18
BRANCH   3  22
ATOM     22  C   LIG d   1      -3.553  89.423 117.680  0.00  0.00     0.382 C 
ATOM     23  O   LIG d   1      -4.693  89.581 117.181  0.00  0.00    -0.241 OA
ATOM     24  O   LIG d   1      -3.131  88.270 117.893  0.00  0.00    -0.241 OA
ENDBRANCH   3  22
TORSDOF 7
ENDMDL
MODEL 8
REMARK VINA RESULT:      -4.1      3.388      4.771
REMARK  7 active torsions:
REMARK  status: ('A' for Active; 'I' for Inactive)
REMARK    1  A    between atoms: C_2  and  C_3 
REMARK    2  A    between atoms: C_3  and  O_6 
REMARK    3  A    between atoms: C_3  and  C_4 
REMARK    4  A    between atoms: C_7  and  O_6 
REMARK    5  A    between atoms: C_9  and  C_10 
REMARK    6  A    between atoms: N_15  and  C_14 
REMARK    7  A    between atoms: N_20  and  C_19 
REMARK       I    between atoms: C_22  and  N_20 
ROOT
ATOM      1  C   LIG d   1      -5.545  92.779 119.797  0.00  0.00     0.161 C 
ATOM      2  C   LIG d   1      -6.943  92.663 119.855  0.00  0.00     0.016 C 
ATOM      3  C   LIG d   1      -7.778  93.613 120.488  0.00  0.00     0.038 C 
ATOM      4  C   LIG d   1      -7.278  94.829 120.978  0.00  0.00     0.028 C 
ATOM      5  C   LIG d   1      -5.812  94.759 121.391  0.00  0.00    -0.047 C 
ATOM      6  C   LIG d   1      -4.992  94.154 120.229  0.00  0.00     0.091 C 
ENDROOT
BRANCH   1   7
ATOM      7  O   LIG d   1      -5.081  92.446 118.474  0.00  0.00    -0.368 OA
BRANCH   7   8
ATOM      8  C   LIG d   1      -5.267  91.070 118.061  0.00  0.00     0.119 C 
BRANCH   8   9
ATOM      9  C   LIG d   1      -3.962  90.312 118.376  0.00  0.00     0.028 C 
ATOM     10  C   LIG d   1      -2.726  91.224 118.320  0.00  0.00     0.006 C 
ENDBRANCH   8   9
BRANCH   8  11
ATOM     11  C   LIG d   1      -5.443  90.962 116.544  0.00  0.00     0.028 C 
ATOM     12  C   LIG d   1      -5.168  89.547 116.011  0.00  0.00     0.006 C 
ENDBRANCH   8  11
ENDBRANCH   7   8
ENDBRANCH   1   7
BRANCH   6  13
ATOM     13  N   LIG d   1      -3.559  93.972 120.581  0.00  0.00    -0.311 N 
ATOM     14  C   LIG d   1      -2.614  94.865 120.294  0.00  0.00     0.210 C 
ATOM     15  C   LIG d   1      -1.199  94.472 120.727  0.00  0.00     0.109 C 
ATOM     16  O   LIG d   1      -2.819  95.961 119.750  0.00  0.00    -0.276 OA
ATOM     17  H   LIG d   1      -3.309  93.124 121.052  0.00  0.00     0.149 HD
ENDBRANCH   6  13
BRANCH   5  18
ATOM     18  N   LIG d   1      -5.384  96.124 121.752  0.00  0.00     0.381 N 
ATOM     19  H   LIG d   1      -5.869  96.424 122.574  0.00  0.00    -0.090 HD
ATOM     20  H   LIG d   1      -5.621  96.747 121.000  0.00  0.00    -0.090 HD
ATOM     21  H   LIG d   1      -4.401  96.142 121.911  0.00  0.00    -0.090 HD
ENDBRANCH   5  18
BRANCH   3  22
ATOM     22  C   LIG d   1      -9.123  93.332 120.671  0.00  0.00     0.382 C 
ATOM     23  O   LIG d   1      -9.474  92.221 121.137  0.00  0.00    -0.241 OA
ATOM     24  O   LIG d   1      -9.992  94.159 120.336  0.00  0.00    -0.241 OA
ENDBRANCH   3  22
TORSDOF 7
ENDMDL
MODEL 9
REMARK VINA RESULT:      -4.1      2.389      3.943
REMARK  7 active torsions:
REMARK  status: ('A' for Active; 'I' for Inactive)
REMARK    1  A    between atoms: C_2  and  C_3 
REMARK    2  A    between atoms: C_3  and  O_6 
REMARK    3  A    between atoms: C_3  and  C_4 
REMARK    4  A    between atoms: C_7  and  O_6 
REMARK    5  A    between atoms: C_9  and  C_10 
REMARK    6  A    between atoms: N_15  and  C_14 
REMARK    7  A    between atoms: N_20  and  C_19 
REMARK       I    between atoms: C_22  and  N_20 
ROOT
ATOM      1  C   LIG d   1      -2.315  91.456 118.857  0.00  0.00     0.161 C 
ATOM      2  C   LIG d   1      -3.602  91.937 118.562  0.00  0.00     0.016 C 
ATOM      3  C   LIG d   1      -4.518  91.250 117.733  0.00  0.00     0.038 C 
ATOM      4  C   LIG d   1      -4.263  89.953 117.261  0.00  0.00     0.028 C 
ATOM      5  C   LIG d   1      -2.777  89.642 117.117  0.00  0.00    -0.047 C 
ATOM      6  C   LIG d   1      -2.061  89.991 118.442  0.00  0.00     0.091 C 
ENDROOT
BRANCH   1   7
ATOM      7  O   LIG d   1      -2.036  91.634 120.260  0.00  0.00    -0.368 OA
BRANCH   7   8
ATOM      8  C   LIG d   1      -1.315  92.838 120.618  0.00  0.00     0.119 C 
BRANCH   8   9
ATOM      9  C   LIG d   1      -0.392  93.194 119.437  0.00  0.00     0.028 C 
ATOM     10  C   LIG d   1      -0.546  94.657 118.991  0.00  0.00     0.006 C 
ENDBRANCH   8   9
BRANCH   8  11
ATOM     11  C   LIG d   1      -0.378  92.594 121.805  0.00  0.00     0.028 C 
ATOM     12  C   LIG d   1       1.054  92.244 121.372  0.00  0.00     0.006 C 
ENDBRANCH   8  11
ENDBRANCH   7   8
ENDBRANCH   1   7
BRANCH   6  13
ATOM     13  N   LIG d   1      -0.590  89.796 118.360  0.00  0.00    -0.311 N 
ATOM     14  C   LIG d   1       0.136  89.269 119.344  0.00  0.00     0.210 C 
ATOM     15  C   LIG d   1       1.638  89.175 119.061  0.00  0.00     0.109 C 
ATOM     16  O   LIG d   1      -0.326  88.841 120.413  0.00  0.00    -0.276 OA
ATOM     17  H   LIG d   1      -0.138  90.087 117.515  0.00  0.00     0.149 HD
ENDBRANCH   6  13
BRANCH   5  18
ATOM     18  N   LIG d   1      -2.653  88.219 116.751  0.00  0.00     0.381 N 
ATOM     19  H   LIG d   1      -2.012  88.119 115.990  0.00  0.00    -0.090 HD
ATOM     20  H   LIG d   1      -3.552  87.880 116.453  0.00  0.00    -0.090 HD
ATOM     21  H   LIG d   1      -2.335  87.691 117.534  0.00  0.00    -0.090 HD
ENDBRANCH   5  18
BRANCH   3  22
ATOM     22  C   LIG d   1      -5.688  91.877 117.334  0.00  0.00     0.382 C 
ATOM     23  O   LIG d   1      -6.452  92.383 118.192  0.00  0.00    -0.241 OA
ATOM     24  O   LIG d   1      -6.012  91.906 116.132  0.00  0.00    -0.241 OA
ENDBRANCH   3  22
TORSDOF 7
ENDMDL
