MODEL 1
REMARK VINA RESULT:      -5.1      0.000      0.000
REMARK  7 active torsions:
REMARK  status: ('A' for Active; 'I' for Inactive)
REMARK    1  A    between atoms: C_2  and  C_3 
REMARK    2  A    between atoms: C_3  and  O_6 
REMARK    3  A    between atoms: C_3  and  C_4 
REMARK    4  A    between atoms: C_7  and  O_6 
REMARK    5  A    between atoms: C_9  and  C_10 
REMARK    6  A    between atoms: N_15  and  C_14 
REMARK    7  A    between atoms: N_20  and  C_19 
REMARK       I    between atoms: C_22  and  N_20 
ROOT
ATOM      1  C   LIG d   1      -6.026  92.846 118.792  0.00  0.00     0.161 C 
ATOM      2  C   LIG d   1      -5.886  91.900 117.763  0.00  0.00     0.016 C 
ATOM      3  C   LIG d   1      -6.782  91.797 116.674  0.00  0.00     0.038 C 
ATOM      4  C   LIG d   1      -7.800  92.737 116.459  0.00  0.00     0.028 C 
ATOM      5  C   LIG d   1      -8.287  93.406 117.741  0.00  0.00    -0.047 C 
ATOM      6  C   LIG d   1      -7.066  93.952 118.516  0.00  0.00     0.091 C 
ENDROOT
BRANCH   1   7
ATOM      7  O   LIG d   1      -4.744  93.430 119.097  0.00  0.00    -0.368 OA
BRANCH   7   8
ATOM      8  C   LIG d   1      -3.586  92.738 118.567  0.00  0.00     0.119 C 
BRANCH   8   9
ATOM      9  C   LIG d   1      -2.790  92.183 119.764  0.00  0.00     0.028 C 
ATOM     10  C   LIG d   1      -2.932  90.658 119.907  0.00  0.00     0.006 C 
ENDBRANCH   8   9
BRANCH   8  11
ATOM     11  C   LIG d   1      -2.633  93.706 117.860  0.00  0.00     0.028 C 
ATOM     12  C   LIG d   1      -2.781  95.154 118.354  0.00  0.00     0.006 C 
ENDBRANCH   8  11
ENDBRANCH   7   8
ENDBRANCH   1   7
BRANCH   6  13
ATOM     13  N   LIG d   1      -7.446  94.548 119.824  0.00  0.00    -0.311 N 
ATOM     14  C   LIG d   1      -7.709  95.843 119.991  0.00  0.00     0.210 C 
ATOM     15  C   LIG d   1      -8.061  96.252 121.424  0.00  0.00     0.109 C 
ATOM     16  O   LIG d   1      -7.715  96.686 119.081  0.00  0.00    -0.276 OA
ATOM     17  H   LIG d   1      -7.496  93.930 120.610  0.00  0.00     0.149 HD
ENDBRANCH   6  13
BRANCH   5  18
ATOM     18  N   LIG d   1      -9.246  94.459 117.357  0.00  0.00     0.381 N 
ATOM     19  H   LIG d   1      -9.132  94.685 116.389  0.00  0.00    -0.090 HD
ATOM     20  H   LIG d   1      -9.057  95.284 117.898  0.00  0.00    -0.090 HD
ATOM     21  H   LIG d   1     -10.178  94.149 117.526  0.00  0.00    -0.090 HD
ENDBRANCH   5  18
BRANCH   3  22
ATOM     22  C   LIG d   1      -6.688  90.719 115.807  0.00  0.00     0.382 C 
ATOM     23  O   LIG d   1      -7.727  90.124 115.430  0.00  0.00    -0.241 OA
ATOM     24  O   LIG d   1      -5.574  90.305 115.431  0.00  0.00    -0.241 OA
ENDBRANCH   3  22
TORSDOF 7
ENDMDL
MODEL 2
REMARK VINA RESULT:      -5.0      2.218      2.895
REMARK  7 active torsions:
REMARK  status: ('A' for Active; 'I' for Inactive)
REMARK    1  A    between atoms: C_2  and  C_3 
REMARK    2  A    between atoms: C_3  and  O_6 
REMARK    3  A    between atoms: C_3  and  C_4 
REMARK    4  A    between atoms: C_7  and  O_6 
REMARK    5  A    between atoms: C_9  and  C_10 
REMARK    6  A    between atoms: N_15  and  C_14 
REMARK    7  A    between atoms: N_20  and  C_19 
REMARK       I    between atoms: C_22  and  N_20 
ROOT
ATOM      1  C   LIG d   1      -4.568  91.871 117.900  0.00  0.00     0.161 C 
ATOM      2  C   LIG d   1      -5.455  91.450 116.896  0.00  0.00     0.016 C 
ATOM      3  C   LIG d   1      -6.809  91.854 116.834  0.00  0.00     0.038 C 
ATOM      4  C   LIG d   1      -7.330  92.834 117.693  0.00  0.00     0.028 C 
ATOM      5  C   LIG d   1      -6.609  92.909 119.035  0.00  0.00    -0.047 C 
ATOM      6  C   LIG d   1      -5.089  93.026 118.781  0.00  0.00     0.091 C 
ENDROOT
BRANCH   1   7
ATOM      7  O   LIG d   1      -3.298  92.220 117.315  0.00  0.00    -0.368 OA
BRANCH   7   8
ATOM      8  C   LIG d   1      -2.205  91.304 117.570  0.00  0.00     0.119 C 
BRANCH   8   9
ATOM      9  C   LIG d   1      -2.703  90.261 118.589  0.00  0.00     0.028 C 
ATOM     10  C   LIG d   1      -1.876  90.265 119.885  0.00  0.00     0.006 C 
ENDBRANCH   8   9
BRANCH   8  11
ATOM     11  C   LIG d   1      -1.033  92.012 118.256  0.00  0.00     0.028 C 
ATOM     12  C   LIG d   1      -0.627  93.315 117.548  0.00  0.00     0.006 C 
ENDBRANCH   8  11
ENDBRANCH   7   8
ENDBRANCH   1   7
BRANCH   6  13
ATOM     13  N   LIG d   1      -4.302  93.020 120.042  0.00  0.00    -0.311 N 
ATOM     14  C   LIG d   1      -3.375  93.931 120.332  0.00  0.00     0.210 C 
ATOM     15  C   LIG d   1      -2.667  93.729 121.675  0.00  0.00     0.109 C 
ATOM     16  O   LIG d   1      -3.094  94.906 119.619  0.00  0.00    -0.276 OA
ATOM     17  H   LIG d   1      -4.488  92.282 120.692  0.00  0.00     0.149 HD
ENDBRANCH   6  13
BRANCH   5  18
ATOM     18  N   LIG d   1      -7.162  94.059 119.774  0.00  0.00     0.381 N 
ATOM     19  H   LIG d   1      -8.089  93.847 120.086  0.00  0.00    -0.090 HD
ATOM     20  H   LIG d   1      -7.210  94.850 119.156  0.00  0.00    -0.090 HD
ATOM     21  H   LIG d   1      -6.582  94.273 120.555  0.00  0.00    -0.090 HD
ENDBRANCH   5  18
BRANCH   3  22
ATOM     22  C   LIG d   1      -7.667  91.247 115.930  0.00  0.00     0.382 C 
ATOM     23  O   LIG d   1      -7.396  90.109 115.476  0.00  0.00    -0.241 OA
ATOM     24  O   LIG d   1      -8.685  91.842 115.528  0.00  0.00    -0.241 OA
ENDBRANCH   3  22
TORSDOF 7
ENDMDL
MODEL 3
REMARK VINA RESULT:      -4.8      2.370      4.485
REMARK  7 active torsions:
REMARK  status: ('A' for Active; 'I' for Inactive)
REMARK    1  A    between atoms: C_2  and  C_3 
REMARK    2  A    between atoms: C_3  and  O_6 
REMARK    3  A    between atoms: C_3  and  C_4 
REMARK    4  A    between atoms: C_7  and  O_6 
REMARK    5  A    between atoms: C_9  and  C_10 
REMARK    6  A    between atoms: N_15  and  C_14 
REMARK    7  A    between atoms: N_20  and  C_19 
REMARK       I    between atoms: C_22  and  N_20 
ROOT
ATOM      1  C   LIG d   1      -5.754  93.322 118.916  0.00  0.00     0.161 C 
ATOM      2  C   LIG d   1      -6.754  92.728 118.128  0.00  0.00     0.016 C 
ATOM      3  C   LIG d   1      -6.485  91.791 117.105  0.00  0.00     0.038 C 
ATOM      4  C   LIG d   1      -5.200  91.266 116.899  0.00  0.00     0.028 C 
ATOM      5  C   LIG d   1      -4.084  92.210 117.333  0.00  0.00    -0.047 C 
ATOM      6  C   LIG d   1      -4.357  92.679 118.781  0.00  0.00     0.091 C 
ENDROOT
BRANCH   1   7
ATOM      7  O   LIG d   1      -6.165  93.339 120.297  0.00  0.00    -0.368 OA
BRANCH   7   8
ATOM      8  C   LIG d   1      -6.359  94.648 120.888  0.00  0.00     0.119 C 
BRANCH   8   9
ATOM      9  C   LIG d   1      -7.847  94.768 121.269  0.00  0.00     0.028 C 
ATOM     10  C   LIG d   1      -8.702  95.338 120.124  0.00  0.00     0.006 C 
ENDBRANCH   8   9
BRANCH   8  11
ATOM     11  C   LIG d   1      -6.110  95.762 119.867  0.00  0.00     0.028 C 
ATOM     12  C   LIG d   1      -4.997  96.730 120.300  0.00  0.00     0.006 C 
ENDBRANCH   8  11
ENDBRANCH   7   8
ENDBRANCH   1   7
BRANCH   6  13
ATOM     13  N   LIG d   1      -3.357  93.671 119.254  0.00  0.00    -0.311 N 
ATOM     14  C   LIG d   1      -2.269  93.342 119.947  0.00  0.00     0.210 C 
ATOM     15  C   LIG d   1      -1.380  94.521 120.354  0.00  0.00     0.109 C 
ATOM     16  O   LIG d   1      -1.938  92.182 120.236  0.00  0.00    -0.276 OA
ATOM     17  H   LIG d   1      -3.531  94.633 119.036  0.00  0.00     0.149 HD
ENDBRANCH   6  13
BRANCH   5  18
ATOM     18  N   LIG d   1      -2.807  91.485 117.192  0.00  0.00     0.381 N 
ATOM     19  H   LIG d   1      -2.120  91.886 117.799  0.00  0.00    -0.090 HD
ATOM     20  H   LIG d   1      -2.483  91.578 116.245  0.00  0.00    -0.090 HD
ATOM     21  H   LIG d   1      -2.935  90.522 117.414  0.00  0.00    -0.090 HD
ENDBRANCH   5  18
BRANCH   3  22
ATOM     22  C   LIG d   1      -7.501  91.398 116.247  0.00  0.00     0.382 C 
ATOM     23  O   LIG d   1      -7.464  90.267 115.707  0.00  0.00    -0.241 OA
ATOM     24  O   LIG d   1      -8.432  92.179 115.972  0.00  0.00    -0.241 OA
ENDBRANCH   3  22
TORSDOF 7
ENDMDL
MODEL 4
REMARK VINA RESULT:      -4.7      2.164      3.242
REMARK  7 active torsions:
REMARK  status: ('A' for Active; 'I' for Inactive)
REMARK    1  A    between atoms: C_2  and  C_3 
REMARK    2  A    between atoms: C_3  and  O_6 
REMARK    3  A    between atoms: C_3  and  C_4 
REMARK    4  A    between atoms: C_7  and  O_6 
REMARK    5  A    between atoms: C_9  and  C_10 
REMARK    6  A    between atoms: N_15  and  C_14 
REMARK    7  A    between atoms: N_20  and  C_19 
REMARK       I    between atoms: C_22  and  N_20 
ROOT
ATOM      1  C   LIG d   1      -4.316  92.174 118.022  0.00  0.00     0.161 C 
ATOM      2  C   LIG d   1      -5.200  91.702 117.038  0.00  0.00     0.016 C 
ATOM      3  C   LIG d   1      -6.588  91.974 117.044  0.00  0.00     0.038 C 
ATOM      4  C   LIG d   1      -7.164  92.869 117.958  0.00  0.00     0.028 C 
ATOM      5  C   LIG d   1      -6.397  92.970 119.272  0.00  0.00    -0.047 C 
ATOM      6  C   LIG d   1      -4.907  93.243 118.964  0.00  0.00     0.091 C 
ENDROOT
BRANCH   1   7
ATOM      7  O   LIG d   1      -3.111  92.665 117.401  0.00  0.00    -0.368 OA
BRANCH   7   8
ATOM      8  C   LIG d   1      -1.864  92.229 117.996  0.00  0.00     0.119 C 
BRANCH   8   9
ATOM      9  C   LIG d   1      -0.759  93.185 117.507  0.00  0.00     0.028 C 
ATOM     10  C   LIG d   1      -1.146  94.664 117.673  0.00  0.00     0.006 C 
ENDBRANCH   8   9
BRANCH   8  11
ATOM     11  C   LIG d   1      -1.458  90.844 117.484  0.00  0.00     0.028 C 
ATOM     12  C   LIG d   1      -1.685  89.735 118.524  0.00  0.00     0.006 C 
ENDBRANCH   8  11
ENDBRANCH   7   8
ENDBRANCH   1   7
BRANCH   6  13
ATOM     13  N   LIG d   1      -4.071  93.273 120.192  0.00  0.00    -0.311 N 
ATOM     14  C   LIG d   1      -3.487  94.377 120.655  0.00  0.00     0.210 C 
ATOM     15  C   LIG d   1      -2.652  94.183 121.925  0.00  0.00     0.109 C 
ATOM     16  O   LIG d   1      -3.607  95.504 120.153  0.00  0.00    -0.276 OA
ATOM     17  H   LIG d   1      -3.946  92.408 120.680  0.00  0.00     0.149 HD
ENDBRANCH   6  13
BRANCH   5  18
ATOM     18  N   LIG d   1      -7.027  94.036 120.075  0.00  0.00     0.381 N 
ATOM     19  H   LIG d   1      -6.325  94.541 120.577  0.00  0.00    -0.090 HD
ATOM     20  H   LIG d   1      -7.650  93.615 120.741  0.00  0.00    -0.090 HD
ATOM     21  H   LIG d   1      -7.533  94.656 119.481  0.00  0.00    -0.090 HD
ENDBRANCH   5  18
BRANCH   3  22
ATOM     22  C   LIG d   1      -7.421  91.316 116.152  0.00  0.00     0.382 C 
ATOM     23  O   LIG d   1      -8.523  91.823 115.833  0.00  0.00    -0.241 OA
ATOM     24  O   LIG d   1      -7.104  90.201 115.696  0.00  0.00    -0.241 OA
ENDBRANCH   3  22
TORSDOF 7
ENDMDL
MODEL 5
REMARK VINA RESULT:      -4.7      1.113      1.712
REMARK  7 active torsions:
REMARK  status: ('A' for Active; 'I' for Inactive)
REMARK    1  A    between atoms: C_2  and  C_3 
REMARK    2  A    between atoms: C_3  and  O_6 
REMARK    3  A    between atoms: C_3  and  C_4 
REMARK    4  A    between atoms: C_7  and  O_6 
REMARK    5  A    between atoms: C_9  and  C_10 
REMARK    6  A    between atoms: N_15  and  C_14 
REMARK    7  A    between atoms: N_20  and  C_19 
REMARK       I    between atoms: C_22  and  N_20 
ROOT
ATOM      1  C   LIG d   1      -6.204  92.801 118.769  0.00  0.00     0.161 C 
ATOM      2  C   LIG d   1      -6.396  91.855 117.747  0.00  0.00     0.016 C 
ATOM      3  C   LIG d   1      -7.392  91.977 116.752  0.00  0.00     0.038 C 
ATOM      4  C   LIG d   1      -8.171  93.136 116.620  0.00  0.00     0.028 C 
ATOM      5  C   LIG d   1      -8.356  93.894 117.931  0.00  0.00    -0.047 C 
ATOM      6  C   LIG d   1      -6.971  94.126 118.576  0.00  0.00     0.091 C 
ENDROOT
BRANCH   1   7
ATOM      7  O   LIG d   1      -4.796  93.057 118.939  0.00  0.00    -0.368 OA
BRANCH   7   8
ATOM      8  C   LIG d   1      -4.092  92.173 119.846  0.00  0.00     0.119 C 
BRANCH   8   9
ATOM      9  C   LIG d   1      -3.614  93.020 121.041  0.00  0.00     0.028 C 
ATOM     10  C   LIG d   1      -3.420  94.500 120.670  0.00  0.00     0.006 C 
ENDBRANCH   8   9
BRANCH   8  11
ATOM     11  C   LIG d   1      -2.816  91.618 119.205  0.00  0.00     0.028 C 
ATOM     12  C   LIG d   1      -3.072  90.361 118.359  0.00  0.00     0.006 C 
ENDBRANCH   8  11
ENDBRANCH   7   8
ENDBRANCH   1   7
BRANCH   6  13
ATOM     13  N   LIG d   1      -7.068  94.786 119.904  0.00  0.00    -0.311 N 
ATOM     14  C   LIG d   1      -6.974  96.104 120.076  0.00  0.00     0.210 C 
ATOM     15  C   LIG d   1      -7.081  96.575 121.529  0.00  0.00     0.109 C 
ATOM     16  O   LIG d   1      -6.846  96.929 119.159  0.00  0.00    -0.276 OA
ATOM     17  H   LIG d   1      -7.203  94.194 120.700  0.00  0.00     0.149 HD
ENDBRANCH   6  13
BRANCH   5  18
ATOM     18  N   LIG d   1      -9.069  95.148 117.624  0.00  0.00     0.381 N 
ATOM     19  H   LIG d   1      -9.155  95.700 118.454  0.00  0.00    -0.090 HD
ATOM     20  H   LIG d   1      -9.992  94.926 117.296  0.00  0.00    -0.090 HD
ATOM     21  H   LIG d   1      -8.574  95.659 116.927  0.00  0.00    -0.090 HD
ENDBRANCH   5  18
BRANCH   3  22
ATOM     22  C   LIG d   1      -7.644  90.914 115.898  0.00  0.00     0.382 C 
ATOM     23  O   LIG d   1      -8.826  90.606 115.611  0.00  0.00    -0.241 OA
ATOM     24  O   LIG d   1      -6.706  90.231 115.446  0.00  0.00    -0.241 OA
ENDBRANCH   3  22
TORSDOF 7
ENDMDL
MODEL 6
REMARK VINA RESULT:      -4.4      2.924      4.763
REMARK  7 active torsions:
REMARK  status: ('A' for Active; 'I' for Inactive)
REMARK    1  A    between atoms: C_2  and  C_3 
REMARK    2  A    between atoms: C_3  and  O_6 
REMARK    3  A    between atoms: C_3  and  C_4 
REMARK    4  A    between atoms: C_7  and  O_6 
REMARK    5  A    between atoms: C_9  and  C_10 
REMARK    6  A    between atoms: N_15  and  C_14 
REMARK    7  A    between atoms: N_20  and  C_19 
REMARK       I    between atoms: C_22  and  N_20 
ROOT
ATOM      1  C   LIG d   1      -4.913  93.781 119.497  0.00  0.00     0.161 C 
ATOM      2  C   LIG d   1      -6.162  93.411 118.971  0.00  0.00     0.016 C 
ATOM      3  C   LIG d   1      -6.319  92.473 117.925  0.00  0.00     0.038 C 
ATOM      4  C   LIG d   1      -5.239  91.723 117.433  0.00  0.00     0.028 C 
ATOM      5  C   LIG d   1      -3.895  92.427 117.584  0.00  0.00    -0.047 C 
ATOM      6  C   LIG d   1      -3.734  92.892 119.049  0.00  0.00     0.091 C 
ENDROOT
BRANCH   1   7
ATOM      7  O   LIG d   1      -4.984  93.831 120.936  0.00  0.00    -0.368 OA
BRANCH   7   8
ATOM      8  C   LIG d   1      -5.009  92.553 121.618  0.00  0.00     0.119 C 
BRANCH   8   9
ATOM      9  C   LIG d   1      -6.220  92.561 122.571  0.00  0.00     0.028 C 
ATOM     10  C   LIG d   1      -6.918  93.931 122.621  0.00  0.00     0.006 C 
ENDBRANCH   8   9
BRANCH   8  11
ATOM     11  C   LIG d   1      -3.784  92.379 122.520  0.00  0.00     0.028 C 
ATOM     12  C   LIG d   1      -3.138  93.717 122.913  0.00  0.00     0.006 C 
ENDBRANCH   8  11
ENDBRANCH   7   8
ENDBRANCH   1   7
BRANCH   6  13
ATOM     13  N   LIG d   1      -2.482  93.664 119.264  0.00  0.00    -0.311 N 
ATOM     14  C   LIG d   1      -1.350  93.118 119.704  0.00  0.00     0.210 C 
ATOM     15  C   LIG d   1      -0.183  94.096 119.875  0.00  0.00     0.109 C 
ATOM     16  O   LIG d   1      -1.192  91.910 119.938  0.00  0.00    -0.276 OA
ATOM     17  H   LIG d   1      -2.512  94.646 119.068  0.00  0.00     0.149 HD
ENDBRANCH   6  13
BRANCH   5  18
ATOM     18  N   LIG d   1      -2.846  91.481 117.159  0.00  0.00     0.381 N 
ATOM     19  H   LIG d   1      -1.944  91.873 117.338  0.00  0.00    -0.090 HD
ATOM     20  H   LIG d   1      -2.931  91.324 116.170  0.00  0.00    -0.090 HD
ATOM     21  H   LIG d   1      -2.946  90.619 117.649  0.00  0.00    -0.090 HD
ENDBRANCH   5  18
BRANCH   3  22
ATOM     22  C   LIG d   1      -7.561  92.305 117.333  0.00  0.00     0.382 C 
ATOM     23  O   LIG d   1      -7.888  91.187 116.867  0.00  0.00    -0.241 OA
ATOM     24  O   LIG d   1      -8.342  93.269 117.218  0.00  0.00    -0.241 OA
ENDBRANCH   3  22
TORSDOF 7
ENDMDL
MODEL 7
REMARK VINA RESULT:      -4.3      4.920      7.348
REMARK  7 active torsions:
REMARK  status: ('A' for Active; 'I' for Inactive)
REMARK    1  A    between atoms: C_2  and  C_3 
REMARK    2  A    between atoms: C_3  and  O_6 
REMARK    3  A    between atoms: C_3  and  C_4 
REMARK    4  A    between atoms: C_7  and  O_6 
REMARK    5  A    between atoms: C_9  and  C_10 
REMARK    6  A    between atoms: N_15  and  C_14 
REMARK    7  A    between atoms: N_20  and  C_19 
REMARK       I    between atoms: C_22  and  N_20 
ROOT
ATOM      1  C   LIG d   1      -0.467  90.031 117.530  0.00  0.00     0.161 C 
ATOM      2  C   LIG d   1       0.936  90.090 117.560  0.00  0.00     0.016 C 
ATOM      3  C   LIG d   1       1.667  91.292 117.425  0.00  0.00     0.038 C 
ATOM      4  C   LIG d   1       1.037  92.545 117.402  0.00  0.00     0.028 C 
ATOM      5  C   LIG d   1      -0.388  92.496 116.862  0.00  0.00    -0.047 C 
ATOM      6  C   LIG d   1      -1.174  91.400 117.617  0.00  0.00     0.091 C 
ENDROOT
BRANCH   1   7
ATOM      7  O   LIG d   1      -0.942  89.155 118.572  0.00  0.00    -0.368 OA
BRANCH   7   8
ATOM      8  C   LIG d   1      -0.026  88.914 119.668  0.00  0.00     0.119 C 
BRANCH   8   9
ATOM      9  C   LIG d   1      -0.169  87.434 120.073  0.00  0.00     0.028 C 
ATOM     10  C   LIG d   1      -1.591  87.089 120.547  0.00  0.00     0.006 C 
ENDBRANCH   8   9
BRANCH   8  11
ATOM     11  C   LIG d   1      -0.423  89.714 120.912  0.00  0.00     0.028 C 
ATOM     12  C   LIG d   1       0.516  90.901 121.182  0.00  0.00     0.006 C 
ENDBRANCH   8  11
ENDBRANCH   7   8
ENDBRANCH   1   7
BRANCH   6  13
ATOM     13  N   LIG d   1      -2.554  91.228 117.093  0.00  0.00    -0.311 N 
ATOM     14  C   LIG d   1      -3.619  91.829 117.621  0.00  0.00     0.210 C 
ATOM     15  C   LIG d   1      -4.951  91.500 116.940  0.00  0.00     0.109 C 
ATOM     16  O   LIG d   1      -3.583  92.629 118.568  0.00  0.00    -0.276 OA
ATOM     17  H   LIG d   1      -2.670  90.621 116.306  0.00  0.00     0.149 HD
ENDBRANCH   6  13
BRANCH   5  18
ATOM     18  N   LIG d   1      -0.972  93.841 117.022  0.00  0.00     0.381 N 
ATOM     19  H   LIG d   1      -1.119  94.256 116.124  0.00  0.00    -0.090 HD
ATOM     20  H   LIG d   1      -0.327  94.417 117.534  0.00  0.00    -0.090 HD
ATOM     21  H   LIG d   1      -1.837  93.781 117.514  0.00  0.00    -0.090 HD
ENDBRANCH   5  18
BRANCH   3  22
ATOM     22  C   LIG d   1       3.045  91.245 117.271  0.00  0.00     0.382 C 
ATOM     23  O   LIG d   1       3.685  90.240 117.664  0.00  0.00    -0.241 OA
ATOM     24  O   LIG d   1       3.660  92.213 116.786  0.00  0.00    -0.241 OA
ENDBRANCH   3  22
TORSDOF 7
ENDMDL
MODEL 8
REMARK VINA RESULT:      -4.1      3.844      6.293
REMARK  7 active torsions:
REMARK  status: ('A' for Active; 'I' for Inactive)
REMARK    1  A    between atoms: C_2  and  C_3 
REMARK    2  A    between atoms: C_3  and  O_6 
REMARK    3  A    between atoms: C_3  and  C_4 
REMARK    4  A    between atoms: C_7  and  O_6 
REMARK    5  A    between atoms: C_9  and  C_10 
REMARK    6  A    between atoms: N_15  and  C_14 
REMARK    7  A    between atoms: N_20  and  C_19 
REMARK       I    between atoms: C_22  and  N_20 
ROOT
ATOM      1  C   LIG d   1      -1.684  93.721 117.397  0.00  0.00     0.161 C 
ATOM      2  C   LIG d   1      -0.700  92.749 117.149  0.00  0.00     0.016 C 
ATOM      3  C   LIG d   1       0.582  92.770 117.746  0.00  0.00     0.038 C 
ATOM      4  C   LIG d   1       0.916  93.687 118.754  0.00  0.00     0.028 C 
ATOM      5  C   LIG d   1       0.131  94.992 118.670  0.00  0.00    -0.047 C 
ATOM      6  C   LIG d   1      -1.377  94.665 118.578  0.00  0.00     0.091 C 
ENDROOT
BRANCH   1   7
ATOM      7  O   LIG d   1      -2.963  93.084 117.584  0.00  0.00    -0.368 OA
BRANCH   7   8
ATOM      8  C   LIG d   1      -2.938  91.650 117.786  0.00  0.00     0.119 C 
BRANCH   8   9
ATOM      9  C   LIG d   1      -4.206  91.067 117.133  0.00  0.00     0.028 C 
ATOM     10  C   LIG d   1      -5.460  91.904 117.438  0.00  0.00     0.006 C 
ENDBRANCH   8   9
BRANCH   8  11
ATOM     11  C   LIG d   1      -3.047  91.294 119.272  0.00  0.00     0.028 C 
ATOM     12  C   LIG d   1      -2.224  90.053 119.650  0.00  0.00     0.006 C 
ENDBRANCH   8  11
ENDBRANCH   7   8
ENDBRANCH   1   7
BRANCH   6  13
ATOM     13  N   LIG d   1      -2.211  95.884 118.408  0.00  0.00    -0.311 N 
ATOM     14  C   LIG d   1      -3.311  96.124 119.119  0.00  0.00     0.210 C 
ATOM     15  C   LIG d   1      -4.034  97.429 118.771  0.00  0.00     0.109 C 
ATOM     16  O   LIG d   1      -3.739  95.396 120.028  0.00  0.00    -0.276 OA
ATOM     17  H   LIG d   1      -1.919  96.543 117.713  0.00  0.00     0.149 HD
ENDBRANCH   6  13
BRANCH   5  18
ATOM     18  N   LIG d   1       0.477  95.797 119.856  0.00  0.00     0.381 N 
ATOM     19  H   LIG d   1       0.107  96.721 119.758  0.00  0.00    -0.090 HD
ATOM     20  H   LIG d   1       1.478  95.863 119.924  0.00  0.00    -0.090 HD
ATOM     21  H   LIG d   1       0.109  95.369 120.678  0.00  0.00    -0.090 HD
ENDBRANCH   5  18
BRANCH   3  22
ATOM     22  C   LIG d   1       1.559  91.890 117.305  0.00  0.00     0.382 C 
ATOM     23  O   LIG d   1       1.333  90.656 117.293  0.00  0.00    -0.241 OA
ATOM     24  O   LIG d   1       2.680  92.312 116.962  0.00  0.00    -0.241 OA
ENDBRANCH   3  22
TORSDOF 7
ENDMDL
MODEL 9
REMARK VINA RESULT:      -4.0      2.730      4.441
REMARK  7 active torsions:
REMARK  status: ('A' for Active; 'I' for Inactive)
REMARK    1  A    between atoms: C_2  and  C_3 
REMARK    2  A    between atoms: C_3  and  O_6 
REMARK    3  A    between atoms: C_3  and  C_4 
REMARK    4  A    between atoms: C_7  and  O_6 
REMARK    5  A    between atoms: C_9  and  C_10 
REMARK    6  A    between atoms: N_15  and  C_14 
REMARK    7  A    between atoms: N_20  and  C_19 
REMARK       I    between atoms: C_22  and  N_20 
ROOT
ATOM      1  C   LIG d   1      -4.853  93.375 119.428  0.00  0.00     0.161 C 
ATOM      2  C   LIG d   1      -6.036  92.999 118.770  0.00  0.00     0.016 C 
ATOM      3  C   LIG d   1      -6.063  92.140 117.648  0.00  0.00     0.038 C 
ATOM      4  C   LIG d   1      -4.914  91.473 117.197  0.00  0.00     0.028 C 
ATOM      5  C   LIG d   1      -3.620  92.214 117.515  0.00  0.00    -0.047 C 
ATOM      6  C   LIG d   1      -3.602  92.570 119.019  0.00  0.00     0.091 C 
ENDROOT
BRANCH   1   7
ATOM      7  O   LIG d   1      -5.046  93.311 120.855  0.00  0.00    -0.368 OA
BRANCH   7   8
ATOM      8  C   LIG d   1      -5.116  94.582 121.546  0.00  0.00     0.119 C 
BRANCH   8   9
ATOM      9  C   LIG d   1      -3.872  94.686 122.451  0.00  0.00     0.028 C 
ATOM     10  C   LIG d   1      -3.378  93.311 122.930  0.00  0.00     0.006 C 
ENDBRANCH   8   9
BRANCH   8  11
ATOM     11  C   LIG d   1      -6.315  94.633 122.498  0.00  0.00     0.028 C 
ATOM     12  C   LIG d   1      -7.657  94.758 121.759  0.00  0.00     0.006 C 
ENDBRANCH   8  11
ENDBRANCH   7   8
ENDBRANCH   1   7
BRANCH   6  13
ATOM     13  N   LIG d   1      -2.408  93.370 119.398  0.00  0.00    -0.311 N 
ATOM     14  C   LIG d   1      -2.129  94.562 118.875  0.00  0.00     0.210 C 
ATOM     15  C   LIG d   1      -0.839  95.208 119.390  0.00  0.00     0.109 C 
ATOM     16  O   LIG d   1      -2.844  95.161 118.058  0.00  0.00    -0.276 OA
ATOM     17  H   LIG d   1      -1.790  92.973 120.078  0.00  0.00     0.149 HD
ENDBRANCH   6  13
BRANCH   5  18
ATOM     18  N   LIG d   1      -2.498  91.344 117.113  0.00  0.00     0.381 N 
ATOM     19  H   LIG d   1      -2.516  90.499 117.649  0.00  0.00    -0.090 HD
ATOM     20  H   LIG d   1      -1.634  91.820 117.302  0.00  0.00    -0.090 HD
ATOM     21  H   LIG d   1      -2.563  91.131 116.142  0.00  0.00    -0.090 HD
ENDBRANCH   5  18
BRANCH   3  22
ATOM     22  C   LIG d   1      -7.243  91.971 116.939  0.00  0.00     0.382 C 
ATOM     23  O   LIG d   1      -7.478  90.882 116.363  0.00  0.00    -0.241 OA
ATOM     24  O   LIG d   1      -8.055  92.910 116.833  0.00  0.00    -0.241 OA
ENDBRANCH   3  22
TORSDOF 7
ENDMDL
