MODEL 1
REMARK VINA RESULT:      -4.9      0.000      0.000
REMARK  7 active torsions:
REMARK  status: ('A' for Active; 'I' for Inactive)
REMARK    1  A    between atoms: C_2  and  C_3 
REMARK    2  A    between atoms: C_3  and  O_6 
REMARK    3  A    between atoms: C_3  and  C_4 
REMARK    4  A    between atoms: C_7  and  O_6 
REMARK    5  A    between atoms: C_9  and  C_10 
REMARK    6  A    between atoms: N_15  and  C_14 
REMARK    7  A    between atoms: N_20  and  C_19 
REMARK       I    between atoms: C_22  and  N_20 
ROOT
ATOM      1  C   LIG d   1      -4.314  92.304 117.770  0.00  0.00     0.161 C 
ATOM      2  C   LIG d   1      -5.545  91.780 117.342  0.00  0.00     0.016 C 
ATOM      3  C   LIG d   1      -5.720  90.436 116.937  0.00  0.00     0.038 C 
ATOM      4  C   LIG d   1      -4.702  89.481 117.077  0.00  0.00     0.028 C 
ATOM      5  C   LIG d   1      -3.300  90.079 117.029  0.00  0.00    -0.047 C 
ATOM      6  C   LIG d   1      -3.219  91.250 118.035  0.00  0.00     0.091 C 
ENDROOT
BRANCH   1   7
ATOM      7  O   LIG d   1      -4.512  93.125 118.938  0.00  0.00    -0.368 OA
BRANCH   7   8
ATOM      8  C   LIG d   1      -5.885  93.460 119.256  0.00  0.00     0.119 C 
BRANCH   8   9
ATOM      9  C   LIG d   1      -6.025  94.991 119.151  0.00  0.00     0.028 C 
ATOM     10  C   LIG d   1      -7.223  95.413 118.284  0.00  0.00     0.006 C 
ENDBRANCH   8   9
BRANCH   8  11
ATOM     11  C   LIG d   1      -6.218  93.121 120.712  0.00  0.00     0.028 C 
ATOM     12  C   LIG d   1      -5.423  91.917 121.241  0.00  0.00     0.006 C 
ENDBRANCH   8  11
ENDBRANCH   7   8
ENDBRANCH   1   7
BRANCH   6  13
ATOM     13  N   LIG d   1      -1.906  91.945 117.991  0.00  0.00    -0.311 N 
ATOM     14  C   LIG d   1      -0.890  91.645 118.799  0.00  0.00     0.210 C 
ATOM     15  C   LIG d   1       0.367  92.497 118.601  0.00  0.00     0.109 C 
ATOM     16  O   LIG d   1      -0.901  90.733 119.640  0.00  0.00    -0.276 OA
ATOM     17  H   LIG d   1      -1.799  92.677 117.317  0.00  0.00     0.149 HD
ENDBRANCH   6  13
BRANCH   5  18
ATOM     18  N   LIG d   1      -2.343  88.995 117.324  0.00  0.00     0.381 N 
ATOM     19  H   LIG d   1      -2.492  88.232 116.696  0.00  0.00    -0.090 HD
ATOM     20  H   LIG d   1      -2.502  88.668 118.261  0.00  0.00    -0.090 HD
ATOM     21  H   LIG d   1      -1.410  89.331 117.236  0.00  0.00    -0.090 HD
ENDBRANCH   5  18
BRANCH   3  22
ATOM     22  C   LIG d   1      -6.913  90.046 116.348  0.00  0.00     0.382 C 
ATOM     23  O   LIG d   1      -7.469  88.980 116.704  0.00  0.00    -0.241 OA
ATOM     24  O   LIG d   1      -7.417  90.725 115.432  0.00  0.00    -0.241 OA
ENDBRANCH   3  22
TORSDOF 7
ENDMDL
MODEL 2
REMARK VINA RESULT:      -4.9      1.999      2.588
REMARK  7 active torsions:
REMARK  status: ('A' for Active; 'I' for Inactive)
REMARK    1  A    between atoms: C_2  and  C_3 
REMARK    2  A    between atoms: C_3  and  O_6 
REMARK    3  A    between atoms: C_3  and  C_4 
REMARK    4  A    between atoms: C_7  and  O_6 
REMARK    5  A    between atoms: C_9  and  C_10 
REMARK    6  A    between atoms: N_15  and  C_14 
REMARK    7  A    between atoms: N_20  and  C_19 
REMARK       I    between atoms: C_22  and  N_20 
ROOT
ATOM      1  C   LIG d   1      -5.597  93.171 118.052  0.00  0.00     0.161 C 
ATOM      2  C   LIG d   1      -6.282  92.059 117.535  0.00  0.00     0.016 C 
ATOM      3  C   LIG d   1      -5.723  90.762 117.468  0.00  0.00     0.038 C 
ATOM      4  C   LIG d   1      -4.486  90.457 118.056  0.00  0.00     0.028 C 
ATOM      5  C   LIG d   1      -3.544  91.652 118.139  0.00  0.00    -0.047 C 
ATOM      6  C   LIG d   1      -4.290  92.834 118.800  0.00  0.00     0.091 C 
ENDROOT
BRANCH   1   7
ATOM      7  O   LIG d   1      -6.476  93.936 118.900  0.00  0.00    -0.368 OA
BRANCH   7   8
ATOM      8  C   LIG d   1      -6.903  95.220 118.382  0.00  0.00     0.119 C 
BRANCH   8   9
ATOM      9  C   LIG d   1      -6.242  96.311 119.246  0.00  0.00     0.028 C 
ATOM     10  C   LIG d   1      -5.994  95.846 120.690  0.00  0.00     0.006 C 
ENDBRANCH   8   9
BRANCH   8  11
ATOM     11  C   LIG d   1      -8.411  95.419 118.561  0.00  0.00     0.028 C 
ATOM     12  C   LIG d   1      -9.028  94.431 119.564  0.00  0.00     0.006 C 
ENDBRANCH   8  11
ENDBRANCH   7   8
ENDBRANCH   1   7
BRANCH   6  13
ATOM     13  N   LIG d   1      -3.466  94.070 118.844  0.00  0.00    -0.311 N 
ATOM     14  C   LIG d   1      -2.721  94.418 119.892  0.00  0.00     0.210 C 
ATOM     15  C   LIG d   1      -1.965  95.741 119.738  0.00  0.00     0.109 C 
ATOM     16  O   LIG d   1      -2.589  93.739 120.922  0.00  0.00    -0.276 OA
ATOM     17  H   LIG d   1      -3.490  94.664 118.038  0.00  0.00     0.149 HD
ENDBRANCH   6  13
BRANCH   5  18
ATOM     18  N   LIG d   1      -2.350  91.227 118.895  0.00  0.00     0.381 N 
ATOM     19  H   LIG d   1      -1.868  92.030 119.246  0.00  0.00    -0.090 HD
ATOM     20  H   LIG d   1      -1.732  90.733 118.276  0.00  0.00    -0.090 HD
ATOM     21  H   LIG d   1      -2.618  90.635 119.651  0.00  0.00    -0.090 HD
ENDBRANCH   5  18
BRANCH   3  22
ATOM     22  C   LIG d   1      -6.386  89.763 116.771  0.00  0.00     0.382 C 
ATOM     23  O   LIG d   1      -7.603  89.550 116.986  0.00  0.00    -0.241 OA
ATOM     24  O   LIG d   1      -5.771  89.043 115.961  0.00  0.00    -0.241 OA
ENDBRANCH   3  22
TORSDOF 7
ENDMDL
MODEL 3
REMARK VINA RESULT:      -4.8      2.185      4.398
REMARK  7 active torsions:
REMARK  status: ('A' for Active; 'I' for Inactive)
REMARK    1  A    between atoms: C_2  and  C_3 
REMARK    2  A    between atoms: C_3  and  O_6 
REMARK    3  A    between atoms: C_3  and  C_4 
REMARK    4  A    between atoms: C_7  and  O_6 
REMARK    5  A    between atoms: C_9  and  C_10 
REMARK    6  A    between atoms: N_15  and  C_14 
REMARK    7  A    between atoms: N_20  and  C_19 
REMARK       I    between atoms: C_22  and  N_20 
ROOT
ATOM      1  C   LIG d   1      -4.079  91.103 119.152  0.00  0.00     0.161 C 
ATOM      2  C   LIG d   1      -4.605  90.233 118.182  0.00  0.00     0.016 C 
ATOM      3  C   LIG d   1      -5.543  90.635 117.203  0.00  0.00     0.038 C 
ATOM      4  C   LIG d   1      -5.907  91.979 117.033  0.00  0.00     0.028 C 
ATOM      5  C   LIG d   1      -5.788  92.805 118.309  0.00  0.00    -0.047 C 
ATOM      6  C   LIG d   1      -4.380  92.597 118.912  0.00  0.00     0.091 C 
ENDROOT
BRANCH   1   7
ATOM      7  O   LIG d   1      -2.659  90.892 119.279  0.00  0.00    -0.368 OA
BRANCH   7   8
ATOM      8  C   LIG d   1      -1.838  91.420 118.208  0.00  0.00     0.119 C 
BRANCH   8   9
ATOM      9  C   LIG d   1      -1.056  90.241 117.599  0.00  0.00     0.028 C 
ATOM     10  C   LIG d   1       0.237  90.693 116.900  0.00  0.00     0.006 C 
ENDBRANCH   8   9
BRANCH   8  11
ATOM     11  C   LIG d   1      -0.772  92.380 118.745  0.00  0.00     0.028 C 
ATOM     12  C   LIG d   1      -0.600  92.287 120.270  0.00  0.00     0.006 C 
ENDBRANCH   8  11
ENDBRANCH   7   8
ENDBRANCH   1   7
BRANCH   6  13
ATOM     13  N   LIG d   1      -4.209  93.304 120.208  0.00  0.00    -0.311 N 
ATOM     14  C   LIG d   1      -3.611  94.489 120.324  0.00  0.00     0.210 C 
ATOM     15  C   LIG d   1      -3.522  95.031 121.754  0.00  0.00     0.109 C 
ATOM     16  O   LIG d   1      -3.176  95.157 119.374  0.00  0.00    -0.276 OA
ATOM     17  H   LIG d   1      -4.561  92.847 121.027  0.00  0.00     0.149 HD
ENDBRANCH   6  13
BRANCH   5  18
ATOM     18  N   LIG d   1      -6.065  94.211 117.958  0.00  0.00     0.381 N 
ATOM     19  H   LIG d   1      -5.628  94.434 117.086  0.00  0.00    -0.090 HD
ATOM     20  H   LIG d   1      -5.675  94.806 118.668  0.00  0.00    -0.090 HD
ATOM     21  H   LIG d   1      -7.048  94.359 117.893  0.00  0.00    -0.090 HD
ENDBRANCH   5  18
BRANCH   3  22
ATOM     22  C   LIG d   1      -6.157  89.680 116.407  0.00  0.00     0.382 C 
ATOM     23  O   LIG d   1      -7.307  89.269 116.696  0.00  0.00    -0.241 OA
ATOM     24  O   LIG d   1      -5.559  89.192 115.430  0.00  0.00    -0.241 OA
ENDBRANCH   3  22
TORSDOF 7
ENDMDL
MODEL 4
REMARK VINA RESULT:      -4.7      2.198      4.696
REMARK  7 active torsions:
REMARK  status: ('A' for Active; 'I' for Inactive)
REMARK    1  A    between atoms: C_2  and  C_3 
REMARK    2  A    between atoms: C_3  and  O_6 
REMARK    3  A    between atoms: C_3  and  C_4 
REMARK    4  A    between atoms: C_7  and  O_6 
REMARK    5  A    between atoms: C_9  and  C_10 
REMARK    6  A    between atoms: N_15  and  C_14 
REMARK    7  A    between atoms: N_20  and  C_19 
REMARK       I    between atoms: C_22  and  N_20 
ROOT
ATOM      1  C   LIG d   1      -3.272  89.974 117.893  0.00  0.00     0.161 C 
ATOM      2  C   LIG d   1      -4.423  89.708 117.134  0.00  0.00     0.016 C 
ATOM      3  C   LIG d   1      -5.395  90.687 116.825  0.00  0.00     0.038 C 
ATOM      4  C   LIG d   1      -5.204  92.043 117.129  0.00  0.00     0.028 C 
ATOM      5  C   LIG d   1      -4.299  92.272 118.334  0.00  0.00    -0.047 C 
ATOM      6  C   LIG d   1      -2.991  91.472 118.139  0.00  0.00     0.091 C 
ENDROOT
BRANCH   1   7
ATOM      7  O   LIG d   1      -2.128  89.344 117.284  0.00  0.00    -0.368 OA
BRANCH   7   8
ATOM      8  C   LIG d   1      -1.822  88.002 117.739  0.00  0.00     0.119 C 
BRANCH   8   9
ATOM      9  C   LIG d   1      -1.862  88.015 119.279  0.00  0.00     0.028 C 
ATOM     10  C   LIG d   1      -2.235  86.644 119.868  0.00  0.00     0.006 C 
ENDBRANCH   8   9
BRANCH   8  11
ATOM     11  C   LIG d   1      -0.389  87.603 117.374  0.00  0.00     0.028 C 
ATOM     12  C   LIG d   1       0.664  88.544 117.980  0.00  0.00     0.006 C 
ENDBRANCH   8  11
ENDBRANCH   7   8
ENDBRANCH   1   7
BRANCH   6  13
ATOM     13  N   LIG d   1      -2.084  91.573 119.312  0.00  0.00    -0.311 N 
ATOM     14  C   LIG d   1      -0.780  91.824 119.211  0.00  0.00     0.210 C 
ATOM     15  C   LIG d   1      -0.024  91.866 120.543  0.00  0.00     0.109 C 
ATOM     16  O   LIG d   1      -0.183  92.047 118.147  0.00  0.00    -0.276 OA
ATOM     17  H   LIG d   1      -2.491  91.436 120.216  0.00  0.00     0.149 HD
ENDBRANCH   6  13
BRANCH   5  18
ATOM     18  N   LIG d   1      -4.075  93.725 118.454  0.00  0.00     0.381 N 
ATOM     19  H   LIG d   1      -3.740  94.089 117.585  0.00  0.00    -0.090 HD
ATOM     20  H   LIG d   1      -3.375  93.889 119.156  0.00  0.00    -0.090 HD
ATOM     21  H   LIG d   1      -4.924  94.181 118.708  0.00  0.00    -0.090 HD
ENDBRANCH   5  18
BRANCH   3  22
ATOM     22  C   LIG d   1      -6.593  90.305 116.239  0.00  0.00     0.382 C 
ATOM     23  O   LIG d   1      -7.077  89.174 116.483  0.00  0.00    -0.241 OA
ATOM     24  O   LIG d   1      -7.172  91.060 115.435  0.00  0.00    -0.241 OA
ENDBRANCH   3  22
TORSDOF 7
ENDMDL
MODEL 5
REMARK VINA RESULT:      -4.6      2.168      4.384
REMARK  7 active torsions:
REMARK  status: ('A' for Active; 'I' for Inactive)
REMARK    1  A    between atoms: C_2  and  C_3 
REMARK    2  A    between atoms: C_3  and  O_6 
REMARK    3  A    between atoms: C_3  and  C_4 
REMARK    4  A    between atoms: C_7  and  O_6 
REMARK    5  A    between atoms: C_9  and  C_10 
REMARK    6  A    between atoms: N_15  and  C_14 
REMARK    7  A    between atoms: N_20  and  C_19 
REMARK       I    between atoms: C_22  and  N_20 
ROOT
ATOM      1  C   LIG d   1      -3.378  90.985 118.393  0.00  0.00     0.161 C 
ATOM      2  C   LIG d   1      -4.252  90.224 117.599  0.00  0.00     0.016 C 
ATOM      3  C   LIG d   1      -5.462  90.728 117.071  0.00  0.00     0.038 C 
ATOM      4  C   LIG d   1      -5.810  92.083 117.176  0.00  0.00     0.028 C 
ATOM      5  C   LIG d   1      -5.208  92.769 118.397  0.00  0.00    -0.047 C 
ATOM      6  C   LIG d   1      -3.686  92.497 118.426  0.00  0.00     0.091 C 
ENDROOT
BRANCH   1   7
ATOM      7  O   LIG d   1      -2.017  90.760 117.977  0.00  0.00    -0.368 OA
BRANCH   7   8
ATOM      8  C   LIG d   1      -1.186  90.007 118.894  0.00  0.00     0.119 C 
BRANCH   8   9
ATOM      9  C   LIG d   1       0.182  90.714 118.966  0.00  0.00     0.028 C 
ATOM     10  C   LIG d   1       0.384  91.718 117.819  0.00  0.00     0.006 C 
ENDBRANCH   8   9
BRANCH   8  11
ATOM     11  C   LIG d   1      -0.889  88.605 118.354  0.00  0.00     0.028 C 
ATOM     12  C   LIG d   1      -1.887  87.549 118.858  0.00  0.00     0.006 C 
ENDBRANCH   8  11
ENDBRANCH   7   8
ENDBRANCH   1   7
BRANCH   6  13
ATOM     13  N   LIG d   1      -3.032  93.063 119.635  0.00  0.00    -0.311 N 
ATOM     14  C   LIG d   1      -2.080  93.993 119.586  0.00  0.00     0.210 C 
ATOM     15  C   LIG d   1      -1.526  94.424 120.947  0.00  0.00     0.109 C 
ATOM     16  O   LIG d   1      -1.665  94.525 118.545  0.00  0.00    -0.276 OA
ATOM     17  H   LIG d   1      -3.331  92.710 120.523  0.00  0.00     0.149 HD
ENDBRANCH   6  13
BRANCH   5  18
ATOM     18  N   LIG d   1      -5.536  94.205 118.309  0.00  0.00     0.381 N 
ATOM     19  H   LIG d   1      -5.009  94.628 117.571  0.00  0.00    -0.090 HD
ATOM     20  H   LIG d   1      -5.283  94.650 119.173  0.00  0.00    -0.090 HD
ATOM     21  H   LIG d   1      -6.511  94.321 118.139  0.00  0.00    -0.090 HD
ENDBRANCH   5  18
BRANCH   3  22
ATOM     22  C   LIG d   1      -6.359  89.863 116.462  0.00  0.00     0.382 C 
ATOM     23  O   LIG d   1      -6.016  89.221 115.440  0.00  0.00    -0.241 OA
ATOM     24  O   LIG d   1      -7.521  89.749 116.896  0.00  0.00    -0.241 OA
ENDBRANCH   3  22
TORSDOF 7
ENDMDL
MODEL 6
REMARK VINA RESULT:      -4.5      2.614      4.797
REMARK  7 active torsions:
REMARK  status: ('A' for Active; 'I' for Inactive)
REMARK    1  A    between atoms: C_2  and  C_3 
REMARK    2  A    between atoms: C_3  and  O_6 
REMARK    3  A    between atoms: C_3  and  C_4 
REMARK    4  A    between atoms: C_7  and  O_6 
REMARK    5  A    between atoms: C_9  and  C_10 
REMARK    6  A    between atoms: N_15  and  C_14 
REMARK    7  A    between atoms: N_20  and  C_19 
REMARK       I    between atoms: C_22  and  N_20 
ROOT
ATOM      1  C   LIG d   1      -3.488  92.409 118.992  0.00  0.00     0.161 C 
ATOM      2  C   LIG d   1      -2.615  91.413 118.524  0.00  0.00     0.016 C 
ATOM      3  C   LIG d   1      -3.043  90.289 117.780  0.00  0.00     0.038 C 
ATOM      4  C   LIG d   1      -4.362  90.163 117.322  0.00  0.00     0.028 C 
ATOM      5  C   LIG d   1      -5.380  90.886 118.197  0.00  0.00    -0.047 C 
ATOM      6  C   LIG d   1      -4.915  92.345 118.407  0.00  0.00     0.091 C 
ENDROOT
BRANCH   1   7
ATOM      7  O   LIG d   1      -2.912  93.710 118.766  0.00  0.00    -0.368 OA
BRANCH   7   8
ATOM      8  C   LIG d   1      -2.040  94.211 119.810  0.00  0.00     0.119 C 
BRANCH   8   9
ATOM      9  C   LIG d   1      -2.837  95.255 120.617  0.00  0.00     0.028 C 
ATOM     10  C   LIG d   1      -3.807  96.061 119.737  0.00  0.00     0.006 C 
ENDBRANCH   8   9
BRANCH   8  11
ATOM     11  C   LIG d   1      -0.850  94.975 119.223  0.00  0.00     0.028 C 
ATOM     12  C   LIG d   1      -0.901  95.071 117.690  0.00  0.00     0.006 C 
ENDBRANCH   8  11
ENDBRANCH   7   8
ENDBRANCH   1   7
BRANCH   6  13
ATOM     13  N   LIG d   1      -5.810  93.100 119.322  0.00  0.00    -0.311 N 
ATOM     14  C   LIG d   1      -6.785  93.901 118.897  0.00  0.00     0.210 C 
ATOM     15  C   LIG d   1      -7.578  94.600 120.006  0.00  0.00     0.109 C 
ATOM     16  O   LIG d   1      -7.090  94.075 117.707  0.00  0.00    -0.276 OA
ATOM     17  H   LIG d   1      -5.653  92.993 120.305  0.00  0.00     0.149 HD
ENDBRANCH   6  13
BRANCH   5  18
ATOM     18  N   LIG d   1      -6.692  90.788 117.530  0.00  0.00     0.381 N 
ATOM     19  H   LIG d   1      -7.310  91.486 117.893  0.00  0.00    -0.090 HD
ATOM     20  H   LIG d   1      -7.088  89.885 117.724  0.00  0.00    -0.090 HD
ATOM     21  H   LIG d   1      -6.584  90.907 116.547  0.00  0.00    -0.090 HD
ENDBRANCH   5  18
BRANCH   3  22
ATOM     22  C   LIG d   1      -2.154  89.257 117.522  0.00  0.00     0.382 C 
ATOM     23  O   LIG d   1      -1.002  89.514 117.095  0.00  0.00    -0.241 OA
ATOM     24  O   LIG d   1      -2.504  88.071 117.667  0.00  0.00    -0.241 OA
ENDBRANCH   3  22
TORSDOF 7
ENDMDL
MODEL 7
REMARK VINA RESULT:      -4.3      2.718      4.866
REMARK  7 active torsions:
REMARK  status: ('A' for Active; 'I' for Inactive)
REMARK    1  A    between atoms: C_2  and  C_3 
REMARK    2  A    between atoms: C_3  and  O_6 
REMARK    3  A    between atoms: C_3  and  C_4 
REMARK    4  A    between atoms: C_7  and  O_6 
REMARK    5  A    between atoms: C_9  and  C_10 
REMARK    6  A    between atoms: N_15  and  C_14 
REMARK    7  A    between atoms: N_20  and  C_19 
REMARK       I    between atoms: C_22  and  N_20 
ROOT
ATOM      1  C   LIG d   1      -5.242  92.001 119.789  0.00  0.00     0.161 C 
ATOM      2  C   LIG d   1      -4.236  91.120 119.358  0.00  0.00     0.016 C 
ATOM      3  C   LIG d   1      -4.007  90.806 117.999  0.00  0.00     0.038 C 
ATOM      4  C   LIG d   1      -4.674  91.474 116.961  0.00  0.00     0.028 C 
ATOM      5  C   LIG d   1      -6.047  92.002 117.364  0.00  0.00    -0.047 C 
ATOM      6  C   LIG d   1      -5.906  92.824 118.665  0.00  0.00     0.091 C 
ENDROOT
BRANCH   1   7
ATOM      7  O   LIG d   1      -4.720  92.876 120.809  0.00  0.00    -0.368 OA
BRANCH   7   8
ATOM      8  C   LIG d   1      -4.099  94.099 120.343  0.00  0.00     0.119 C 
BRANCH   8   9
ATOM      9  C   LIG d   1      -2.593  94.001 120.654  0.00  0.00     0.028 C 
ATOM     10  C   LIG d   1      -1.727  94.049 119.383  0.00  0.00     0.006 C 
ENDBRANCH   8   9
BRANCH   8  11
ATOM     11  C   LIG d   1      -4.598  95.313 121.133  0.00  0.00     0.028 C 
ATOM     12  C   LIG d   1      -4.575  96.610 120.309  0.00  0.00     0.006 C 
ENDBRANCH   8  11
ENDBRANCH   7   8
ENDBRANCH   1   7
BRANCH   6  13
ATOM     13  N   LIG d   1      -7.216  93.307 119.175  0.00  0.00    -0.311 N 
ATOM     14  C   LIG d   1      -7.699  94.521 118.921  0.00  0.00     0.210 C 
ATOM     15  C   LIG d   1      -9.058  94.824 119.560  0.00  0.00     0.109 C 
ATOM     16  O   LIG d   1      -7.146  95.366 118.200  0.00  0.00    -0.276 OA
ATOM     17  H   LIG d   1      -7.745  92.674 119.743  0.00  0.00     0.149 HD
ENDBRANCH   6  13
BRANCH   5  18
ATOM     18  N   LIG d   1      -6.570  92.792 116.234  0.00  0.00     0.381 N 
ATOM     19  H   LIG d   1      -6.388  92.315 115.374  0.00  0.00    -0.090 HD
ATOM     20  H   LIG d   1      -6.095  93.678 116.209  0.00  0.00    -0.090 HD
ATOM     21  H   LIG d   1      -7.549  92.936 116.342  0.00  0.00    -0.090 HD
ENDBRANCH   5  18
BRANCH   3  22
ATOM     22  C   LIG d   1      -3.129  89.785 117.668  0.00  0.00     0.382 C 
ATOM     23  O   LIG d   1      -3.544  88.605 117.583  0.00  0.00    -0.241 OA
ATOM     24  O   LIG d   1      -1.918  90.024 117.497  0.00  0.00    -0.241 OA
ENDBRANCH   3  22
TORSDOF 7
ENDMDL
MODEL 8
REMARK VINA RESULT:      -4.1      2.526      6.028
REMARK  7 active torsions:
REMARK  status: ('A' for Active; 'I' for Inactive)
REMARK    1  A    between atoms: C_2  and  C_3 
REMARK    2  A    between atoms: C_3  and  O_6 
REMARK    3  A    between atoms: C_3  and  C_4 
REMARK    4  A    between atoms: C_7  and  O_6 
REMARK    5  A    between atoms: C_9  and  C_10 
REMARK    6  A    between atoms: N_15  and  C_14 
REMARK    7  A    between atoms: N_20  and  C_19 
REMARK       I    between atoms: C_22  and  N_20 
ROOT
ATOM      1  C   LIG d   1      -4.123  92.196 118.526  0.00  0.00     0.161 C 
ATOM      2  C   LIG d   1      -3.513  93.376 118.982  0.00  0.00     0.016 C 
ATOM      3  C   LIG d   1      -4.235  94.468 119.516  0.00  0.00     0.038 C 
ATOM      4  C   LIG d   1      -5.612  94.393 119.772  0.00  0.00     0.028 C 
ATOM      5  C   LIG d   1      -6.344  93.413 118.862  0.00  0.00    -0.047 C 
ATOM      6  C   LIG d   1      -5.613  92.051 118.899  0.00  0.00     0.091 C 
ENDROOT
BRANCH   1   7
ATOM      7  O   LIG d   1      -3.377  91.051 118.986  0.00  0.00    -0.368 OA
BRANCH   7   8
ATOM      8  C   LIG d   1      -2.565  90.378 117.993  0.00  0.00     0.119 C 
BRANCH   8   9
ATOM      9  C   LIG d   1      -3.196  88.996 117.739  0.00  0.00     0.028 C 
ATOM     10  C   LIG d   1      -2.176  87.852 117.868  0.00  0.00     0.006 C 
ENDBRANCH   8   9
BRANCH   8  11
ATOM     11  C   LIG d   1      -1.158  90.090 118.527  0.00  0.00     0.028 C 
ATOM     12  C   LIG d   1      -0.885  90.764 119.881  0.00  0.00     0.006 C 
ENDBRANCH   8  11
ENDBRANCH   7   8
ENDBRANCH   1   7
BRANCH   6  13
ATOM     13  N   LIG d   1      -6.215  91.059 117.972  0.00  0.00    -0.311 N 
ATOM     14  C   LIG d   1      -6.114  91.139 116.646  0.00  0.00     0.210 C 
ATOM     15  C   LIG d   1      -6.826  90.023 115.875  0.00  0.00     0.109 C 
ATOM     16  O   LIG d   1      -5.476  92.010 116.037  0.00  0.00    -0.276 OA
ATOM     17  H   LIG d   1      -6.725  90.301 118.382  0.00  0.00     0.149 HD
ENDBRANCH   6  13
BRANCH   5  18
ATOM     18  N   LIG d   1      -7.742  93.331 119.328  0.00  0.00     0.381 N 
ATOM     19  H   LIG d   1      -7.773  93.430 120.323  0.00  0.00    -0.090 HD
ATOM     20  H   LIG d   1      -8.112  92.428 119.089  0.00  0.00    -0.090 HD
ATOM     21  H   LIG d   1      -8.286  94.046 118.898  0.00  0.00    -0.090 HD
ENDBRANCH   5  18
BRANCH   3  22
ATOM     22  C   LIG d   1      -3.583  95.667 119.764  0.00  0.00     0.382 C 
ATOM     23  O   LIG d   1      -2.481  95.907 119.215  0.00  0.00    -0.241 OA
ATOM     24  O   LIG d   1      -4.063  96.494 120.563  0.00  0.00    -0.241 OA
ENDBRANCH   3  22
TORSDOF 7
ENDMDL
MODEL 9
REMARK VINA RESULT:      -4.1      2.147      3.626
REMARK  7 active torsions:
REMARK  status: ('A' for Active; 'I' for Inactive)
REMARK    1  A    between atoms: C_2  and  C_3 
REMARK    2  A    between atoms: C_3  and  O_6 
REMARK    3  A    between atoms: C_3  and  C_4 
REMARK    4  A    between atoms: C_7  and  O_6 
REMARK    5  A    between atoms: C_9  and  C_10 
REMARK    6  A    between atoms: N_15  and  C_14 
REMARK    7  A    between atoms: N_20  and  C_19 
REMARK       I    between atoms: C_22  and  N_20 
ROOT
ATOM      1  C   LIG d   1      -3.326  91.632 118.312  0.00  0.00     0.161 C 
ATOM      2  C   LIG d   1      -4.421  92.460 118.017  0.00  0.00     0.016 C 
ATOM      3  C   LIG d   1      -5.475  92.079 117.154  0.00  0.00     0.038 C 
ATOM      4  C   LIG d   1      -5.581  90.777 116.644  0.00  0.00     0.028 C 
ATOM      5  C   LIG d   1      -4.238  90.068 116.509  0.00  0.00    -0.047 C 
ATOM      6  C   LIG d   1      -3.481  90.167 117.853  0.00  0.00     0.091 C 
ENDROOT
BRANCH   1   7
ATOM      7  O   LIG d   1      -3.038  91.687 119.723  0.00  0.00    -0.368 OA
BRANCH   7   8
ATOM      8  C   LIG d   1      -1.725  92.179 120.087  0.00  0.00     0.119 C 
BRANCH   8   9
ATOM      9  C   LIG d   1      -1.922  93.290 121.137  0.00  0.00     0.028 C 
ATOM     10  C   LIG d   1      -2.188  94.663 120.496  0.00  0.00     0.006 C 
ENDBRANCH   8   9
BRANCH   8  11
ATOM     11  C   LIG d   1      -1.036  92.860 118.901  0.00  0.00     0.028 C 
ATOM     12  C   LIG d   1       0.366  92.296 118.622  0.00  0.00     0.006 C 
ENDBRANCH   8  11
ENDBRANCH   7   8
ENDBRANCH   1   7
BRANCH   6  13
ATOM     13  N   LIG d   1      -2.121  89.572 117.783  0.00  0.00    -0.311 N 
ATOM     14  C   LIG d   1      -1.851  88.316 118.137  0.00  0.00     0.210 C 
ATOM     15  C   LIG d   1      -0.380  87.910 118.006  0.00  0.00     0.109 C 
ATOM     16  O   LIG d   1      -2.695  87.491 118.516  0.00  0.00    -0.276 OA
ATOM     17  H   LIG d   1      -1.381  90.162 117.456  0.00  0.00     0.149 HD
ENDBRANCH   6  13
BRANCH   5  18
ATOM     18  N   LIG d   1      -4.507  88.677 116.099  0.00  0.00     0.381 N 
ATOM     19  H   LIG d   1      -4.751  88.651 115.129  0.00  0.00    -0.090 HD
ATOM     20  H   LIG d   1      -5.285  88.326 116.629  0.00  0.00    -0.090 HD
ATOM     21  H   LIG d   1      -3.703  88.111 116.262  0.00  0.00    -0.090 HD
ENDBRANCH   5  18
BRANCH   3  22
ATOM     22  C   LIG d   1      -6.416  93.019 116.762  0.00  0.00     0.382 C 
ATOM     23  O   LIG d   1      -6.768  93.923 117.557  0.00  0.00    -0.241 OA
ATOM     24  O   LIG d   1      -6.950  92.947 115.639  0.00  0.00    -0.241 OA
ENDBRANCH   3  22
TORSDOF 7
ENDMDL
