MODEL 1
REMARK VINA RESULT:      -4.3      0.000      0.000
REMARK  7 active torsions:
REMARK  status: ('A' for Active; 'I' for Inactive)
REMARK    1  A    between atoms: C_2  and  C_3 
REMARK    2  A    between atoms: C_3  and  O_6 
REMARK    3  A    between atoms: C_3  and  C_4 
REMARK    4  A    between atoms: C_7  and  O_6 
REMARK    5  A    between atoms: C_9  and  C_10 
REMARK    6  A    between atoms: N_15  and  C_14 
REMARK    7  A    between atoms: N_20  and  C_19 
REMARK       I    between atoms: C_22  and  N_20 
ROOT
ATOM      1  C   LIG d   1       2.050  91.436 117.382  0.00  0.00     0.161 C 
ATOM      2  C   LIG d   1       1.368  92.535 117.931  0.00  0.00     0.016 C 
ATOM      3  C   LIG d   1      -0.026  92.545 118.170  0.00  0.00     0.038 C 
ATOM      4  C   LIG d   1      -0.813  91.394 118.015  0.00  0.00     0.028 C 
ATOM      5  C   LIG d   1      -0.259  90.415 116.986  0.00  0.00    -0.047 C 
ATOM      6  C   LIG d   1       1.226  90.134 117.310  0.00  0.00     0.091 C 
ENDROOT
BRANCH   1   7
ATOM      7  O   LIG d   1       3.278  91.214 118.103  0.00  0.00    -0.368 OA
BRANCH   7   8
ATOM      8  C   LIG d   1       4.449  91.899 117.594  0.00  0.00     0.119 C 
BRANCH   8   9
ATOM      9  C   LIG d   1       5.126  90.964 116.574  0.00  0.00     0.028 C 
ATOM     10  C   LIG d   1       5.964  89.866 117.250  0.00  0.00     0.006 C 
ENDBRANCH   8   9
BRANCH   8  11
ATOM     11  C   LIG d   1       5.489  92.117 118.697  0.00  0.00     0.028 C 
ATOM     12  C   LIG d   1       5.009  93.091 119.785  0.00  0.00     0.006 C 
ENDBRANCH   8  11
ENDBRANCH   7   8
ENDBRANCH   1   7
BRANCH   6  13
ATOM     13  N   LIG d   1       1.869  89.250 116.302  0.00  0.00    -0.311 N 
ATOM     14  C   LIG d   1       2.603  88.186 116.622  0.00  0.00     0.210 C 
ATOM     15  C   LIG d   1       3.191  87.424 115.430  0.00  0.00     0.109 C 
ATOM     16  O   LIG d   1       2.798  87.783 117.778  0.00  0.00    -0.276 OA
ATOM     17  H   LIG d   1       1.737  89.487 115.338  0.00  0.00     0.149 HD
ENDBRANCH   6  13
BRANCH   5  18
ATOM     18  N   LIG d   1      -1.099  89.204 117.025  0.00  0.00     0.381 N 
ATOM     19  H   LIG d   1      -0.856  88.648 117.821  0.00  0.00    -0.090 HD
ATOM     20  H   LIG d   1      -0.927  88.661 116.197  0.00  0.00    -0.090 HD
ATOM     21  H   LIG d   1      -2.062  89.458 117.071  0.00  0.00    -0.090 HD
ENDBRANCH   5  18
BRANCH   3  22
ATOM     22  C   LIG d   1      -0.652  93.728 118.532  0.00  0.00     0.382 C 
ATOM     23  O   LIG d   1      -1.271  94.398 117.670  0.00  0.00    -0.241 OA
ATOM     24  O   LIG d   1      -0.570  94.156 119.698  0.00  0.00    -0.241 OA
ENDBRANCH   3  22
TORSDOF 7
ENDMDL
MODEL 2
REMARK VINA RESULT:      -4.2      2.283      5.291
REMARK  7 active torsions:
REMARK  status: ('A' for Active; 'I' for Inactive)
REMARK    1  A    between atoms: C_2  and  C_3 
REMARK    2  A    between atoms: C_3  and  O_6 
REMARK    3  A    between atoms: C_3  and  C_4 
REMARK    4  A    between atoms: C_7  and  O_6 
REMARK    5  A    between atoms: C_9  and  C_10 
REMARK    6  A    between atoms: N_15  and  C_14 
REMARK    7  A    between atoms: N_20  and  C_19 
REMARK       I    between atoms: C_22  and  N_20 
ROOT
ATOM      1  C   LIG d   1       0.752  90.843 118.772  0.00  0.00     0.161 C 
ATOM      2  C   LIG d   1       1.763  90.098 118.142  0.00  0.00     0.016 C 
ATOM      3  C   LIG d   1       1.526  89.230 117.052  0.00  0.00     0.038 C 
ATOM      4  C   LIG d   1       0.277  89.162 116.417  0.00  0.00     0.028 C 
ATOM      5  C   LIG d   1      -0.889  89.514 117.334  0.00  0.00    -0.047 C 
ATOM      6  C   LIG d   1      -0.596  90.867 118.022  0.00  0.00     0.091 C 
ENDROOT
BRANCH   1   7
ATOM      7  O   LIG d   1       1.214  92.187 119.015  0.00  0.00    -0.368 OA
BRANCH   7   8
ATOM      8  C   LIG d   1       1.502  92.522 120.395  0.00  0.00     0.119 C 
BRANCH   8   9
ATOM      9  C   LIG d   1       3.033  92.504 120.566  0.00  0.00     0.028 C 
ATOM     10  C   LIG d   1       3.515  91.314 121.412  0.00  0.00     0.006 C 
ENDBRANCH   8   9
BRANCH   8  11
ATOM     11  C   LIG d   1       0.974  91.449 121.351  0.00  0.00     0.028 C 
ATOM     12  C   LIG d   1      -0.138  91.970 122.275  0.00  0.00     0.006 C 
ENDBRANCH   8  11
ENDBRANCH   7   8
ENDBRANCH   1   7
BRANCH   6  13
ATOM     13  N   LIG d   1      -1.649  91.245 119.001  0.00  0.00    -0.311 N 
ATOM     14  C   LIG d   1      -2.284  92.416 118.978  0.00  0.00     0.210 C 
ATOM     15  C   LIG d   1      -3.319  92.611 120.090  0.00  0.00     0.109 C 
ATOM     16  O   LIG d   1      -2.111  93.298 118.124  0.00  0.00    -0.276 OA
ATOM     17  H   LIG d   1      -1.874  90.576 119.710  0.00  0.00     0.149 HD
ENDBRANCH   6  13
BRANCH   5  18
ATOM     18  N   LIG d   1      -2.113  89.538 116.510  0.00  0.00     0.381 N 
ATOM     19  H   LIG d   1      -2.273  88.633 116.116  0.00  0.00    -0.090 HD
ATOM     20  H   LIG d   1      -1.986  90.192 115.758  0.00  0.00    -0.090 HD
ATOM     21  H   LIG d   1      -2.894  89.808 117.067  0.00  0.00    -0.090 HD
ENDBRANCH   5  18
BRANCH   3  22
ATOM     22  C   LIG d   1       2.535  88.387 116.613  0.00  0.00     0.382 C 
ATOM     23  O   LIG d   1       2.780  87.324 117.233  0.00  0.00    -0.241 OA
ATOM     24  O   LIG d   1       3.233  88.697 115.629  0.00  0.00    -0.241 OA
ENDBRANCH   3  22
TORSDOF 7
ENDMDL
MODEL 3
REMARK VINA RESULT:      -4.2      1.664      4.806
REMARK  7 active torsions:
REMARK  status: ('A' for Active; 'I' for Inactive)
REMARK    1  A    between atoms: C_2  and  C_3 
REMARK    2  A    between atoms: C_3  and  O_6 
REMARK    3  A    between atoms: C_3  and  C_4 
REMARK    4  A    between atoms: C_7  and  O_6 
REMARK    5  A    between atoms: C_9  and  C_10 
REMARK    6  A    between atoms: N_15  and  C_14 
REMARK    7  A    between atoms: N_20  and  C_19 
REMARK       I    between atoms: C_22  and  N_20 
ROOT
ATOM      1  C   LIG d   1       2.163  90.844 117.673  0.00  0.00     0.161 C 
ATOM      2  C   LIG d   1       2.867  89.843 116.984  0.00  0.00     0.016 C 
ATOM      3  C   LIG d   1       2.238  88.844 116.206  0.00  0.00     0.038 C 
ATOM      4  C   LIG d   1       0.861  88.869 115.940  0.00  0.00     0.028 C 
ATOM      5  C   LIG d   1       0.047  89.567 117.025  0.00  0.00    -0.047 C 
ATOM      6  C   LIG d   1       0.668  90.954 117.304  0.00  0.00     0.091 C 
ENDROOT
BRANCH   1   7
ATOM      7  O   LIG d   1       2.818  92.115 117.492  0.00  0.00    -0.368 OA
BRANCH   7   8
ATOM      8  C   LIG d   1       3.392  92.712 118.681  0.00  0.00     0.119 C 
BRANCH   8   9
ATOM      9  C   LIG d   1       4.901  92.893 118.426  0.00  0.00     0.028 C 
ATOM     10  C   LIG d   1       5.711  91.634 118.780  0.00  0.00     0.006 C 
ENDBRANCH   8   9
BRANCH   8  11
ATOM     11  C   LIG d   1       3.295  91.766 119.881  0.00  0.00     0.028 C 
ATOM     12  C   LIG d   1       2.501  92.368 121.052  0.00  0.00     0.006 C 
ENDBRANCH   8  11
ENDBRANCH   7   8
ENDBRANCH   1   7
BRANCH   6  13
ATOM     13  N   LIG d   1      -0.017  91.669 118.413  0.00  0.00    -0.311 N 
ATOM     14  C   LIG d   1      -0.435  92.930 118.323  0.00  0.00     0.210 C 
ATOM     15  C   LIG d   1      -1.099  93.483 119.588  0.00  0.00     0.109 C 
ATOM     16  O   LIG d   1      -0.349  93.634 117.305  0.00  0.00    -0.276 OA
ATOM     17  H   LIG d   1      -0.156  91.163 119.265  0.00  0.00     0.149 HD
ENDBRANCH   6  13
BRANCH   5  18
ATOM     18  N   LIG d   1      -1.349  89.642 116.556  0.00  0.00     0.381 N 
ATOM     19  H   LIG d   1      -1.449  89.127 115.704  0.00  0.00    -0.090 HD
ATOM     20  H   LIG d   1      -1.579  90.603 116.371  0.00  0.00    -0.090 HD
ATOM     21  H   LIG d   1      -1.963  89.274 117.249  0.00  0.00    -0.090 HD
ENDBRANCH   5  18
BRANCH   3  22
ATOM     22  C   LIG d   1       2.984  87.782 115.718  0.00  0.00     0.382 C 
ATOM     23  O   LIG d   1       4.194  87.945 115.431  0.00  0.00    -0.241 OA
ATOM     24  O   LIG d   1       2.450  86.674 115.518  0.00  0.00    -0.241 OA
ENDBRANCH   3  22
TORSDOF 7
ENDMDL
MODEL 4
REMARK VINA RESULT:      -4.1      2.631      5.861
REMARK  7 active torsions:
REMARK  status: ('A' for Active; 'I' for Inactive)
REMARK    1  A    between atoms: C_2  and  C_3 
REMARK    2  A    between atoms: C_3  and  O_6 
REMARK    3  A    between atoms: C_3  and  C_4 
REMARK    4  A    between atoms: C_7  and  O_6 
REMARK    5  A    between atoms: C_9  and  C_10 
REMARK    6  A    between atoms: N_15  and  C_14 
REMARK    7  A    between atoms: N_20  and  C_19 
REMARK       I    between atoms: C_22  and  N_20 
ROOT
ATOM      1  C   LIG d   1       2.424  92.073 117.686  0.00  0.00     0.161 C 
ATOM      2  C   LIG d   1       3.550  91.621 116.978  0.00  0.00     0.016 C 
ATOM      3  C   LIG d   1       4.746  91.201 117.603  0.00  0.00     0.038 C 
ATOM      4  C   LIG d   1       4.845  91.061 118.996  0.00  0.00     0.028 C 
ATOM      5  C   LIG d   1       3.906  91.985 119.765  0.00  0.00    -0.047 C 
ATOM      6  C   LIG d   1       2.474  91.823 119.208  0.00  0.00     0.091 C 
ENDROOT
BRANCH   1   7
ATOM      7  O   LIG d   1       1.229  91.498 117.122  0.00  0.00    -0.368 OA
BRANCH   7   8
ATOM      8  C   LIG d   1       0.907  90.151 117.548  0.00  0.00     0.119 C 
BRANCH   8   9
ATOM      9  C   LIG d   1       0.867  89.264 116.289  0.00  0.00     0.028 C 
ATOM     10  C   LIG d   1       2.084  88.328 116.192  0.00  0.00     0.006 C 
ENDBRANCH   8   9
BRANCH   8  11
ATOM     11  C   LIG d   1      -0.503  90.076 118.142  0.00  0.00     0.028 C 
ATOM     12  C   LIG d   1      -1.510  89.395 117.202  0.00  0.00     0.006 C 
ENDBRANCH   8  11
ENDBRANCH   7   8
ENDBRANCH   1   7
BRANCH   6  13
ATOM     13  N   LIG d   1       1.507  92.752 119.849  0.00  0.00    -0.311 N 
ATOM     14  C   LIG d   1       0.757  92.421 120.898  0.00  0.00     0.210 C 
ATOM     15  C   LIG d   1      -0.188  93.521 121.391  0.00  0.00     0.109 C 
ATOM     16  O   LIG d   1       0.807  91.331 121.487  0.00  0.00    -0.276 OA
ATOM     17  H   LIG d   1       1.425  93.668 119.453  0.00  0.00     0.149 HD
ENDBRANCH   6  13
BRANCH   5  18
ATOM     18  N   LIG d   1       4.013  91.637 121.195  0.00  0.00     0.381 N 
ATOM     19  H   LIG d   1       4.313  92.437 121.716  0.00  0.00    -0.090 HD
ATOM     20  H   LIG d   1       4.701  90.913 121.303  0.00  0.00    -0.090 HD
ATOM     21  H   LIG d   1       3.132  91.321 121.536  0.00  0.00    -0.090 HD
ENDBRANCH   5  18
BRANCH   3  22
ATOM     22  C   LIG d   1       5.873  90.954 116.835  0.00  0.00     0.382 C 
ATOM     23  O   LIG d   1       5.760  90.396 115.717  0.00  0.00    -0.241 OA
ATOM     24  O   LIG d   1       7.006  91.242 117.265  0.00  0.00    -0.241 OA
ENDBRANCH   3  22
TORSDOF 7
ENDMDL
MODEL 5
REMARK VINA RESULT:      -4.1      1.436      2.208
REMARK  7 active torsions:
REMARK  status: ('A' for Active; 'I' for Inactive)
REMARK    1  A    between atoms: C_2  and  C_3 
REMARK    2  A    between atoms: C_3  and  O_6 
REMARK    3  A    between atoms: C_3  and  C_4 
REMARK    4  A    between atoms: C_7  and  O_6 
REMARK    5  A    between atoms: C_9  and  C_10 
REMARK    6  A    between atoms: N_15  and  C_14 
REMARK    7  A    between atoms: N_20  and  C_19 
REMARK       I    between atoms: C_22  and  N_20 
ROOT
ATOM      1  C   LIG d   1       1.903  91.403 117.298  0.00  0.00     0.161 C 
ATOM      2  C   LIG d   1       1.288  92.499 117.927  0.00  0.00     0.016 C 
ATOM      3  C   LIG d   1       0.636  92.412 119.178  0.00  0.00     0.038 C 
ATOM      4  C   LIG d   1       0.687  91.250 119.962  0.00  0.00     0.028 C 
ATOM      5  C   LIG d   1       0.863  89.975 119.144  0.00  0.00    -0.047 C 
ATOM      6  C   LIG d   1       2.065  90.154 118.189  0.00  0.00     0.091 C 
ENDROOT
BRANCH   1   7
ATOM      7  O   LIG d   1       3.179  91.803 116.759  0.00  0.00    -0.368 OA
BRANCH   7   8
ATOM      8  C   LIG d   1       4.332  91.560 117.602  0.00  0.00     0.119 C 
BRANCH   8   9
ATOM      9  C   LIG d   1       4.813  92.924 118.133  0.00  0.00     0.028 C 
ATOM     10  C   LIG d   1       4.515  93.109 119.630  0.00  0.00     0.006 C 
ENDBRANCH   8   9
BRANCH   8  11
ATOM     11  C   LIG d   1       5.506  91.002 116.793  0.00  0.00     0.028 C 
ATOM     12  C   LIG d   1       5.061  90.314 115.492  0.00  0.00     0.006 C 
ENDBRANCH   8  11
ENDBRANCH   7   8
ENDBRANCH   1   7
BRANCH   6  13
ATOM     13  N   LIG d   1       2.256  88.984 117.293  0.00  0.00    -0.311 N 
ATOM     14  C   LIG d   1       3.067  87.967 117.578  0.00  0.00     0.210 C 
ATOM     15  C   LIG d   1       3.132  86.872 116.507  0.00  0.00     0.109 C 
ATOM     16  O   LIG d   1       3.714  87.851 118.629  0.00  0.00    -0.276 OA
ATOM     17  H   LIG d   1       1.745  88.981 116.432  0.00  0.00     0.149 HD
ENDBRANCH   6  13
BRANCH   5  18
ATOM     18  N   LIG d   1       1.038  88.858 120.092  0.00  0.00     0.381 N 
ATOM     19  H   LIG d   1       0.363  88.928 120.827  0.00  0.00    -0.090 HD
ATOM     20  H   LIG d   1       1.955  88.919 120.499  0.00  0.00    -0.090 HD
ATOM     21  H   LIG d   1       0.934  87.989 119.617  0.00  0.00    -0.090 HD
ENDBRANCH   5  18
BRANCH   3  22
ATOM     22  C   LIG d   1      -0.111  93.486 119.640  0.00  0.00     0.382 C 
ATOM     23  O   LIG d   1      -0.888  94.090 118.861  0.00  0.00    -0.241 OA
ATOM     24  O   LIG d   1       0.015  93.886 120.812  0.00  0.00    -0.241 OA
ENDBRANCH   3  22
TORSDOF 7
ENDMDL
MODEL 6
REMARK VINA RESULT:      -4.1      3.635      5.768
REMARK  7 active torsions:
REMARK  status: ('A' for Active; 'I' for Inactive)
REMARK    1  A    between atoms: C_2  and  C_3 
REMARK    2  A    between atoms: C_3  and  O_6 
REMARK    3  A    between atoms: C_3  and  C_4 
REMARK    4  A    between atoms: C_7  and  O_6 
REMARK    5  A    between atoms: C_9  and  C_10 
REMARK    6  A    between atoms: N_15  and  C_14 
REMARK    7  A    between atoms: N_20  and  C_19 
REMARK       I    between atoms: C_22  and  N_20 
ROOT
ATOM      1  C   LIG d   1      -1.749  91.605 118.801  0.00  0.00     0.161 C 
ATOM      2  C   LIG d   1      -2.734  91.431 117.815  0.00  0.00     0.016 C 
ATOM      3  C   LIG d   1      -4.031  91.988 117.903  0.00  0.00     0.038 C 
ATOM      4  C   LIG d   1      -4.382  92.889 118.920  0.00  0.00     0.028 C 
ATOM      5  C   LIG d   1      -3.585  92.694 120.205  0.00  0.00    -0.047 C 
ATOM      6  C   LIG d   1      -2.078  92.675 119.862  0.00  0.00     0.091 C 
ENDROOT
BRANCH   1   7
ATOM      7  O   LIG d   1      -0.480  91.889 118.179  0.00  0.00    -0.368 OA
BRANCH   7   8
ATOM      8  C   LIG d   1       0.575  90.925 118.414  0.00  0.00     0.119 C 
BRANCH   8   9
ATOM      9  C   LIG d   1       1.069  90.434 117.040  0.00  0.00     0.028 C 
ATOM     10  C   LIG d   1       0.214  89.280 116.487  0.00  0.00     0.006 C 
ENDBRANCH   8   9
BRANCH   8  11
ATOM     11  C   LIG d   1       0.042  89.677 119.123  0.00  0.00     0.028 C 
ATOM     12  C   LIG d   1       0.785  89.372 120.434  0.00  0.00     0.006 C 
ENDBRANCH   8  11
ENDBRANCH   7   8
ENDBRANCH   1   7
BRANCH   6  13
ATOM     13  N   LIG d   1      -1.230  92.404 121.052  0.00  0.00    -0.311 N 
ATOM     14  C   LIG d   1      -0.366  93.286 121.553  0.00  0.00     0.210 C 
ATOM     15  C   LIG d   1       0.424  92.797 122.771  0.00  0.00     0.109 C 
ATOM     16  O   LIG d   1      -0.201  94.437 121.123  0.00  0.00    -0.276 OA
ATOM     17  H   LIG d   1      -1.322  91.505 121.483  0.00  0.00     0.149 HD
ENDBRANCH   6  13
BRANCH   5  18
ATOM     18  N   LIG d   1      -3.955  93.783 121.128  0.00  0.00     0.381 N 
ATOM     19  H   LIG d   1      -4.369  94.536 120.616  0.00  0.00    -0.090 HD
ATOM     20  H   LIG d   1      -3.123  94.126 121.576  0.00  0.00    -0.090 HD
ATOM     21  H   LIG d   1      -4.595  93.446 121.814  0.00  0.00    -0.090 HD
ENDBRANCH   5  18
BRANCH   3  22
ATOM     22  C   LIG d   1      -5.004  91.614 116.989  0.00  0.00     0.382 C 
ATOM     23  O   LIG d   1      -4.792  90.658 116.205  0.00  0.00    -0.241 OA
ATOM     24  O   LIG d   1      -6.073  92.248 116.909  0.00  0.00    -0.241 OA
ENDBRANCH   3  22
TORSDOF 7
ENDMDL
MODEL 7
REMARK VINA RESULT:      -4.1      3.221      4.591
REMARK  7 active torsions:
REMARK  status: ('A' for Active; 'I' for Inactive)
REMARK    1  A    between atoms: C_2  and  C_3 
REMARK    2  A    between atoms: C_3  and  O_6 
REMARK    3  A    between atoms: C_3  and  C_4 
REMARK    4  A    between atoms: C_7  and  O_6 
REMARK    5  A    between atoms: C_9  and  C_10 
REMARK    6  A    between atoms: N_15  and  C_14 
REMARK    7  A    between atoms: N_20  and  C_19 
REMARK       I    between atoms: C_22  and  N_20 
ROOT
ATOM      1  C   LIG d   1      -1.270  92.485 120.051  0.00  0.00     0.161 C 
ATOM      2  C   LIG d   1      -2.036  93.404 120.788  0.00  0.00     0.016 C 
ATOM      3  C   LIG d   1      -3.346  93.792 120.425  0.00  0.00     0.038 C 
ATOM      4  C   LIG d   1      -4.041  93.170 119.377  0.00  0.00     0.028 C 
ATOM      5  C   LIG d   1      -3.126  92.600 118.299  0.00  0.00    -0.047 C 
ATOM      6  C   LIG d   1      -2.053  91.712 118.968  0.00  0.00     0.091 C 
ENDROOT
BRANCH   1   7
ATOM      7  O   LIG d   1      -0.614  91.566 120.947  0.00  0.00    -0.368 OA
BRANCH   7   8
ATOM      8  C   LIG d   1       0.830  91.663 121.015  0.00  0.00     0.119 C 
BRANCH   8   9
ATOM      9  C   LIG d   1       1.269  92.739 120.003  0.00  0.00     0.028 C 
ATOM     10  C   LIG d   1       2.315  92.213 119.005  0.00  0.00     0.006 C 
ENDBRANCH   8   9
BRANCH   8  11
ATOM     11  C   LIG d   1       1.498  90.367 120.547  0.00  0.00     0.028 C 
ATOM     12  C   LIG d   1       0.552  89.157 120.597  0.00  0.00     0.006 C 
ENDBRANCH   8  11
ENDBRANCH   7   8
ENDBRANCH   1   7
BRANCH   6  13
ATOM     13  N   LIG d   1      -1.065  91.182 117.992  0.00  0.00    -0.311 N 
ATOM     14  C   LIG d   1      -1.208  90.016 117.364  0.00  0.00     0.210 C 
ATOM     15  C   LIG d   1      -0.065  89.649 116.414  0.00  0.00     0.109 C 
ATOM     16  O   LIG d   1      -2.189  89.266 117.480  0.00  0.00    -0.276 OA
ATOM     17  H   LIG d   1      -0.254  91.742 117.814  0.00  0.00     0.149 HD
ENDBRANCH   6  13
BRANCH   5  18
ATOM     18  N   LIG d   1      -3.972  91.862 117.342  0.00  0.00     0.381 N 
ATOM     19  H   LIG d   1      -3.446  91.117 116.929  0.00  0.00    -0.090 HD
ATOM     20  H   LIG d   1      -4.259  92.488 116.611  0.00  0.00    -0.090 HD
ATOM     21  H   LIG d   1      -4.772  91.494 117.807  0.00  0.00    -0.090 HD
ENDBRANCH   5  18
BRANCH   3  22
ATOM     22  C   LIG d   1      -3.960  94.843 121.090  0.00  0.00     0.382 C 
ATOM     23  O   LIG d   1      -3.702  95.056 122.299  0.00  0.00    -0.241 OA
ATOM     24  O   LIG d   1      -4.801  95.553 120.508  0.00  0.00    -0.241 OA
ENDBRANCH   3  22
TORSDOF 7
ENDMDL
MODEL 8
REMARK VINA RESULT:      -4.0      2.211      3.345
REMARK  7 active torsions:
REMARK  status: ('A' for Active; 'I' for Inactive)
REMARK    1  A    between atoms: C_2  and  C_3 
REMARK    2  A    between atoms: C_3  and  O_6 
REMARK    3  A    between atoms: C_3  and  C_4 
REMARK    4  A    between atoms: C_7  and  O_6 
REMARK    5  A    between atoms: C_9  and  C_10 
REMARK    6  A    between atoms: N_15  and  C_14 
REMARK    7  A    between atoms: N_20  and  C_19 
REMARK       I    between atoms: C_22  and  N_20 
ROOT
ATOM      1  C   LIG d   1       0.530  92.607 118.330  0.00  0.00     0.161 C 
ATOM      2  C   LIG d   1      -0.820  92.792 118.673  0.00  0.00     0.016 C 
ATOM      3  C   LIG d   1      -1.836  91.858 118.365  0.00  0.00     0.038 C 
ATOM      4  C   LIG d   1      -1.544  90.597 117.824  0.00  0.00     0.028 C 
ATOM      5  C   LIG d   1      -0.260  90.573 117.001  0.00  0.00    -0.047 C 
ATOM      6  C   LIG d   1       0.884  91.188 117.839  0.00  0.00     0.091 C 
ENDROOT
BRANCH   1   7
ATOM      7  O   LIG d   1       1.371  92.977 119.441  0.00  0.00    -0.368 OA
BRANCH   7   8
ATOM      8  C   LIG d   1       1.607  91.947 120.432  0.00  0.00     0.119 C 
BRANCH   8   9
ATOM      9  C   LIG d   1       1.020  92.447 121.767  0.00  0.00     0.028 C 
ATOM     10  C   LIG d   1      -0.262  91.695 122.163  0.00  0.00     0.006 C 
ENDBRANCH   8   9
BRANCH   8  11
ATOM     11  C   LIG d   1       3.104  91.757 120.693  0.00  0.00     0.028 C 
ATOM     12  C   LIG d   1       3.975  92.763 119.925  0.00  0.00     0.006 C 
ENDBRANCH   8  11
ENDBRANCH   7   8
ENDBRANCH   1   7
BRANCH   6  13
ATOM     13  N   LIG d   1       2.157  91.280 117.078  0.00  0.00    -0.311 N 
ATOM     14  C   LIG d   1       3.121  90.363 117.148  0.00  0.00     0.210 C 
ATOM     15  C   LIG d   1       4.360  90.662 116.297  0.00  0.00     0.109 C 
ATOM     16  O   LIG d   1       3.055  89.316 117.809  0.00  0.00    -0.276 OA
ATOM     17  H   LIG d   1       2.281  92.082 116.492  0.00  0.00     0.149 HD
ENDBRANCH   6  13
BRANCH   5  18
ATOM     18  N   LIG d   1      -0.005  89.172 116.614  0.00  0.00     0.381 N 
ATOM     19  H   LIG d   1       0.114  88.611 117.433  0.00  0.00    -0.090 HD
ATOM     20  H   LIG d   1       0.844  89.133 116.078  0.00  0.00    -0.090 HD
ATOM     21  H   LIG d   1      -0.766  88.825 116.072  0.00  0.00    -0.090 HD
ENDBRANCH   5  18
BRANCH   3  22
ATOM     22  C   LIG d   1      -3.165  92.198 118.563  0.00  0.00     0.382 C 
ATOM     23  O   LIG d   1      -4.020  91.920 117.688  0.00  0.00    -0.241 OA
ATOM     24  O   LIG d   1      -3.513  92.820 119.585  0.00  0.00    -0.241 OA
ENDBRANCH   3  22
TORSDOF 7
ENDMDL
MODEL 9
REMARK VINA RESULT:      -3.9      2.480      3.473
REMARK  7 active torsions:
REMARK  status: ('A' for Active; 'I' for Inactive)
REMARK    1  A    between atoms: C_2  and  C_3 
REMARK    2  A    between atoms: C_3  and  O_6 
REMARK    3  A    between atoms: C_3  and  C_4 
REMARK    4  A    between atoms: C_7  and  O_6 
REMARK    5  A    between atoms: C_9  and  C_10 
REMARK    6  A    between atoms: N_15  and  C_14 
REMARK    7  A    between atoms: N_20  and  C_19 
REMARK       I    between atoms: C_22  and  N_20 
ROOT
ATOM      1  C   LIG d   1      -0.120  93.022 119.284  0.00  0.00     0.161 C 
ATOM      2  C   LIG d   1      -0.597  94.062 120.098  0.00  0.00     0.016 C 
ATOM      3  C   LIG d   1      -1.956  94.450 120.149  0.00  0.00     0.038 C 
ATOM      4  C   LIG d   1      -2.960  93.718 119.498  0.00  0.00     0.028 C 
ATOM      5  C   LIG d   1      -2.463  92.970 118.266  0.00  0.00    -0.047 C 
ATOM      6  C   LIG d   1      -1.217  92.140 118.652  0.00  0.00     0.091 C 
ENDROOT
BRANCH   1   7
ATOM      7  O   LIG d   1       0.811  92.208 120.026  0.00  0.00    -0.368 OA
BRANCH   7   8
ATOM      8  C   LIG d   1       2.212  92.545 119.877  0.00  0.00     0.119 C 
BRANCH   8   9
ATOM      9  C   LIG d   1       2.840  91.505 118.929  0.00  0.00     0.028 C 
ATOM     10  C   LIG d   1       3.084  92.069 117.519  0.00  0.00     0.006 C 
ENDBRANCH   8   9
BRANCH   8  11
ATOM     11  C   LIG d   1       2.966  92.394 121.202  0.00  0.00     0.028 C 
ATOM     12  C   LIG d   1       4.393  92.961 121.143  0.00  0.00     0.006 C 
ENDBRANCH   8  11
ENDBRANCH   7   8
ENDBRANCH   1   7
BRANCH   6  13
ATOM     13  N   LIG d   1      -0.616  91.443 117.484  0.00  0.00    -0.311 N 
ATOM     14  C   LIG d   1      -0.204  90.177 117.519  0.00  0.00     0.210 C 
ATOM     15  C   LIG d   1       0.403  89.659 116.212  0.00  0.00     0.109 C 
ATOM     16  O   LIG d   1      -0.314  89.424 118.498  0.00  0.00    -0.276 OA
ATOM     17  H   LIG d   1      -0.519  91.971 116.639  0.00  0.00     0.149 HD
ENDBRANCH   6  13
BRANCH   5  18
ATOM     18  N   LIG d   1      -3.577  92.142 117.767  0.00  0.00     0.381 N 
ATOM     19  H   LIG d   1      -3.434  91.188 118.030  0.00  0.00    -0.090 HD
ATOM     20  H   LIG d   1      -3.596  92.193 116.764  0.00  0.00    -0.090 HD
ATOM     21  H   LIG d   1      -4.440  92.471 118.140  0.00  0.00    -0.090 HD
ENDBRANCH   5  18
BRANCH   3  22
ATOM     22  C   LIG d   1      -2.316  95.605 120.826  0.00  0.00     0.382 C 
ATOM     23  O   LIG d   1      -2.544  95.564 122.059  0.00  0.00    -0.241 OA
ATOM     24  O   LIG d   1      -2.459  96.679 120.212  0.00  0.00    -0.241 OA
ENDBRANCH   3  22
TORSDOF 7
ENDMDL
