MODEL 1
REMARK VINA RESULT:      -4.8      0.000      0.000
REMARK  7 active torsions:
REMARK  status: ('A' for Active; 'I' for Inactive)
REMARK    1  A    between atoms: C_2  and  C_3 
REMARK    2  A    between atoms: C_3  and  O_6 
REMARK    3  A    between atoms: C_3  and  C_4 
REMARK    4  A    between atoms: C_7  and  O_6 
REMARK    5  A    between atoms: C_9  and  C_10 
REMARK    6  A    between atoms: N_15  and  C_14 
REMARK    7  A    between atoms: N_20  and  C_19 
REMARK       I    between atoms: C_22  and  N_20 
ROOT
ATOM      1  C   LIG d   1      -5.845  93.576 118.631  0.00  0.00     0.161 C 
ATOM      2  C   LIG d   1      -6.626  92.860 117.709  0.00  0.00     0.016 C 
ATOM      3  C   LIG d   1      -6.115  91.824 116.894  0.00  0.00     0.038 C 
ATOM      4  C   LIG d   1      -4.812  91.328 117.056  0.00  0.00     0.028 C 
ATOM      5  C   LIG d   1      -3.839  92.356 117.623  0.00  0.00    -0.047 C 
ATOM      6  C   LIG d   1      -4.449  92.974 118.901  0.00  0.00     0.091 C 
ENDROOT
BRANCH   1   7
ATOM      7  O   LIG d   1      -6.569  93.734 119.867  0.00  0.00    -0.368 OA
BRANCH   7   8
ATOM      8  C   LIG d   1      -7.744  94.580 119.814  0.00  0.00     0.119 C 
BRANCH   8   9
ATOM      9  C   LIG d   1      -7.271  96.008 119.479  0.00  0.00     0.028 C 
ATOM     10  C   LIG d   1      -7.970  96.581 118.235  0.00  0.00     0.006 C 
ENDBRANCH   8   9
BRANCH   8  11
ATOM     11  C   LIG d   1      -8.417  94.687 121.185  0.00  0.00     0.028 C 
ATOM     12  C   LIG d   1      -9.950  94.760 121.093  0.00  0.00     0.006 C 
ENDBRANCH   8  11
ENDBRANCH   7   8
ENDBRANCH   1   7
BRANCH   6  13
ATOM     13  N   LIG d   1      -3.598  94.050 119.473  0.00  0.00    -0.311 N 
ATOM     14  C   LIG d   1      -2.669  93.834 120.402  0.00  0.00     0.210 C 
ATOM     15  C   LIG d   1      -1.918  95.085 120.869  0.00  0.00     0.109 C 
ATOM     16  O   LIG d   1      -2.374  92.720 120.861  0.00  0.00    -0.276 OA
ATOM     17  H   LIG d   1      -3.750  94.980 119.134  0.00  0.00     0.149 HD
ENDBRANCH   6  13
BRANCH   5  18
ATOM     18  N   LIG d   1      -2.557  91.668 117.868  0.00  0.00     0.381 N 
ATOM     19  H   LIG d   1      -2.595  91.183 118.743  0.00  0.00    -0.090 HD
ATOM     20  H   LIG d   1      -1.825  92.353 117.919  0.00  0.00    -0.090 HD
ATOM     21  H   LIG d   1      -2.370  91.023 117.132  0.00  0.00    -0.090 HD
ENDBRANCH   5  18
BRANCH   3  22
ATOM     22  C   LIG d   1      -6.897  91.300 115.877  0.00  0.00     0.382 C 
ATOM     23  O   LIG d   1      -7.868  91.958 115.431  0.00  0.00    -0.241 OA
ATOM     24  O   LIG d   1      -6.672  90.160 115.430  0.00  0.00    -0.241 OA
ENDBRANCH   3  22
TORSDOF 7
ENDMDL
MODEL 2
REMARK VINA RESULT:      -4.7      2.287      5.004
REMARK  7 active torsions:
REMARK  status: ('A' for Active; 'I' for Inactive)
REMARK    1  A    between atoms: C_2  and  C_3 
REMARK    2  A    between atoms: C_3  and  O_6 
REMARK    3  A    between atoms: C_3  and  C_4 
REMARK    4  A    between atoms: C_7  and  O_6 
REMARK    5  A    between atoms: C_9  and  C_10 
REMARK    6  A    between atoms: N_15  and  C_14 
REMARK    7  A    between atoms: N_20  and  C_19 
REMARK       I    between atoms: C_22  and  N_20 
ROOT
ATOM      1  C   LIG d   1      -4.240  92.447 118.402  0.00  0.00     0.161 C 
ATOM      2  C   LIG d   1      -4.861  91.883 117.275  0.00  0.00     0.016 C 
ATOM      3  C   LIG d   1      -6.200  92.151 116.909  0.00  0.00     0.038 C 
ATOM      4  C   LIG d   1      -6.968  93.125 117.564  0.00  0.00     0.028 C 
ATOM      5  C   LIG d   1      -6.552  93.350 119.014  0.00  0.00    -0.047 C 
ATOM      6  C   LIG d   1      -5.027  93.598 119.066  0.00  0.00     0.091 C 
ENDROOT
BRANCH   1   7
ATOM      7  O   LIG d   1      -2.909  92.882 118.061  0.00  0.00    -0.368 OA
BRANCH   7   8
ATOM      8  C   LIG d   1      -1.877  91.867 118.104  0.00  0.00     0.119 C 
BRANCH   8   9
ATOM      9  C   LIG d   1      -1.883  91.259 119.520  0.00  0.00     0.028 C 
ATOM     10  C   LIG d   1      -2.031  89.728 119.501  0.00  0.00     0.006 C 
ENDBRANCH   8   9
BRANCH   8  11
ATOM     11  C   LIG d   1      -0.484  92.481 117.932  0.00  0.00     0.028 C 
ATOM     12  C   LIG d   1       0.528  91.501 117.317  0.00  0.00     0.006 C 
ENDBRANCH   8  11
ENDBRANCH   7   8
ENDBRANCH   1   7
BRANCH   6  13
ATOM     13  N   LIG d   1      -4.523  93.743 120.456  0.00  0.00    -0.311 N 
ATOM     14  C   LIG d   1      -4.376  94.920 121.063  0.00  0.00     0.210 C 
ATOM     15  C   LIG d   1      -3.823  94.847 122.490  0.00  0.00     0.109 C 
ATOM     16  O   LIG d   1      -4.682  96.015 120.567  0.00  0.00    -0.276 OA
ATOM     17  H   LIG d   1      -4.281  92.903 120.944  0.00  0.00     0.149 HD
ENDBRANCH   6  13
BRANCH   5  18
ATOM     18  N   LIG d   1      -7.340  94.483 119.533  0.00  0.00     0.381 N 
ATOM     19  H   LIG d   1      -6.987  95.341 119.159  0.00  0.00    -0.090 HD
ATOM     20  H   LIG d   1      -7.246  94.513 120.533  0.00  0.00    -0.090 HD
ATOM     21  H   LIG d   1      -8.299  94.374 119.285  0.00  0.00    -0.090 HD
ENDBRANCH   5  18
BRANCH   3  22
ATOM     22  C   LIG d   1      -6.797  91.410 115.900  0.00  0.00     0.382 C 
ATOM     23  O   LIG d   1      -7.904  91.769 115.430  0.00  0.00    -0.241 OA
ATOM     24  O   LIG d   1      -6.265  90.364 115.484  0.00  0.00    -0.241 OA
ENDBRANCH   3  22
TORSDOF 7
ENDMDL
MODEL 3
REMARK VINA RESULT:      -4.6      2.503      4.910
REMARK  7 active torsions:
REMARK  status: ('A' for Active; 'I' for Inactive)
REMARK    1  A    between atoms: C_2  and  C_3 
REMARK    2  A    between atoms: C_3  and  O_6 
REMARK    3  A    between atoms: C_3  and  C_4 
REMARK    4  A    between atoms: C_7  and  O_6 
REMARK    5  A    between atoms: C_9  and  C_10 
REMARK    6  A    between atoms: N_15  and  C_14 
REMARK    7  A    between atoms: N_20  and  C_19 
REMARK       I    between atoms: C_22  and  N_20 
ROOT
ATOM      1  C   LIG d   1      -5.582  93.488 119.181  0.00  0.00     0.161 C 
ATOM      2  C   LIG d   1      -4.512  92.642 118.847  0.00  0.00     0.016 C 
ATOM      3  C   LIG d   1      -4.502  91.817 117.699  0.00  0.00     0.038 C 
ATOM      4  C   LIG d   1      -5.504  91.895 116.721  0.00  0.00     0.028 C 
ATOM      5  C   LIG d   1      -6.848  92.365 117.267  0.00  0.00    -0.047 C 
ATOM      6  C   LIG d   1      -6.635  93.670 118.069  0.00  0.00     0.091 C 
ENDROOT
BRANCH   1   7
ATOM      7  O   LIG d   1      -5.077  94.770 119.607  0.00  0.00    -0.368 OA
BRANCH   7   8
ATOM      8  C   LIG d   1      -3.691  94.801 120.027  0.00  0.00     0.119 C 
BRANCH   8   9
ATOM      9  C   LIG d   1      -3.645  95.449 121.425  0.00  0.00     0.028 C 
ATOM     10  C   LIG d   1      -2.333  96.211 121.676  0.00  0.00     0.006 C 
ENDBRANCH   8   9
BRANCH   8  11
ATOM     11  C   LIG d   1      -2.857  95.718 119.128  0.00  0.00     0.028 C 
ATOM     12  C   LIG d   1      -1.827  94.949 118.285  0.00  0.00     0.006 C 
ENDBRANCH   8  11
ENDBRANCH   7   8
ENDBRANCH   1   7
BRANCH   6  13
ATOM     13  N   LIG d   1      -7.887  94.152 118.709  0.00  0.00    -0.311 N 
ATOM     14  C   LIG d   1      -8.341  95.398 118.583  0.00  0.00     0.210 C 
ATOM     15  C   LIG d   1      -9.640  95.692 119.341  0.00  0.00     0.109 C 
ATOM     16  O   LIG d   1      -7.810  96.278 117.890  0.00  0.00    -0.276 OA
ATOM     17  H   LIG d   1      -8.398  93.495 119.265  0.00  0.00     0.149 HD
ENDBRANCH   6  13
BRANCH   5  18
ATOM     18  N   LIG d   1      -7.761  92.533 116.121  0.00  0.00     0.381 N 
ATOM     19  H   LIG d   1      -8.296  91.698 115.989  0.00  0.00    -0.090 HD
ATOM     20  H   LIG d   1      -7.217  92.694 115.292  0.00  0.00    -0.090 HD
ATOM     21  H   LIG d   1      -8.371  93.304 116.281  0.00  0.00    -0.090 HD
ENDBRANCH   5  18
BRANCH   3  22
ATOM     22  C   LIG d   1      -3.500  90.872 117.540  0.00  0.00     0.382 C 
ATOM     23  O   LIG d   1      -3.732  89.811 116.912  0.00  0.00    -0.241 OA
ATOM     24  O   LIG d   1      -2.379  91.047 118.055  0.00  0.00    -0.241 OA
ENDBRANCH   3  22
TORSDOF 7
ENDMDL
MODEL 4
REMARK VINA RESULT:      -4.5      2.536      4.339
REMARK  7 active torsions:
REMARK  status: ('A' for Active; 'I' for Inactive)
REMARK    1  A    between atoms: C_2  and  C_3 
REMARK    2  A    between atoms: C_3  and  O_6 
REMARK    3  A    between atoms: C_3  and  C_4 
REMARK    4  A    between atoms: C_7  and  O_6 
REMARK    5  A    between atoms: C_9  and  C_10 
REMARK    6  A    between atoms: N_15  and  C_14 
REMARK    7  A    between atoms: N_20  and  C_19 
REMARK       I    between atoms: C_22  and  N_20 
ROOT
ATOM      1  C   LIG d   1      -5.649  93.587 119.198  0.00  0.00     0.161 C 
ATOM      2  C   LIG d   1      -4.558  92.756 118.893  0.00  0.00     0.016 C 
ATOM      3  C   LIG d   1      -4.519  91.906 117.764  0.00  0.00     0.038 C 
ATOM      4  C   LIG d   1      -5.513  91.941 116.775  0.00  0.00     0.028 C 
ATOM      5  C   LIG d   1      -6.872  92.395 117.297  0.00  0.00    -0.047 C 
ATOM      6  C   LIG d   1      -6.694  93.721 118.071  0.00  0.00     0.091 C 
ENDROOT
BRANCH   1   7
ATOM      7  O   LIG d   1      -5.175  94.888 119.599  0.00  0.00    -0.368 OA
BRANCH   7   8
ATOM      8  C   LIG d   1      -5.395  95.246 120.986  0.00  0.00     0.119 C 
BRANCH   8   9
ATOM      9  C   LIG d   1      -4.017  95.303 121.673  0.00  0.00     0.028 C 
ATOM     10  C   LIG d   1      -3.652  93.980 122.367  0.00  0.00     0.006 C 
ENDBRANCH   8   9
BRANCH   8  11
ATOM     11  C   LIG d   1      -6.173  94.155 121.727  0.00  0.00     0.028 C 
ATOM     12  C   LIG d   1      -7.509  94.657 122.297  0.00  0.00     0.006 C 
ENDBRANCH   8  11
ENDBRANCH   7   8
ENDBRANCH   1   7
BRANCH   6  13
ATOM     13  N   LIG d   1      -7.962  94.192 118.687  0.00  0.00    -0.311 N 
ATOM     14  C   LIG d   1      -8.397  95.448 118.601  0.00  0.00     0.210 C 
ATOM     15  C   LIG d   1      -9.718  95.726 119.325  0.00  0.00     0.109 C 
ATOM     16  O   LIG d   1      -7.831  96.351 117.966  0.00  0.00    -0.276 OA
ATOM     17  H   LIG d   1      -8.500  93.518 119.195  0.00  0.00     0.149 HD
ENDBRANCH   6  13
BRANCH   5  18
ATOM     18  N   LIG d   1      -7.776  92.518 116.138  0.00  0.00     0.381 N 
ATOM     19  H   LIG d   1      -7.337  92.137 115.324  0.00  0.00    -0.090 HD
ATOM     20  H   LIG d   1      -7.959  93.492 115.971  0.00  0.00    -0.090 HD
ATOM     21  H   LIG d   1      -8.630  92.038 116.320  0.00  0.00    -0.090 HD
ENDBRANCH   5  18
BRANCH   3  22
ATOM     22  C   LIG d   1      -3.496  90.978 117.638  0.00  0.00     0.382 C 
ATOM     23  O   LIG d   1      -2.348  91.248 118.067  0.00  0.00    -0.241 OA
ATOM     24  O   LIG d   1      -3.695  89.893 117.060  0.00  0.00    -0.241 OA
ENDBRANCH   3  22
TORSDOF 7
ENDMDL
MODEL 5
REMARK VINA RESULT:      -4.2      3.176      7.373
REMARK  7 active torsions:
REMARK  status: ('A' for Active; 'I' for Inactive)
REMARK    1  A    between atoms: C_2  and  C_3 
REMARK    2  A    between atoms: C_3  and  O_6 
REMARK    3  A    between atoms: C_3  and  C_4 
REMARK    4  A    between atoms: C_7  and  O_6 
REMARK    5  A    between atoms: C_9  and  C_10 
REMARK    6  A    between atoms: N_15  and  C_14 
REMARK    7  A    between atoms: N_20  and  C_19 
REMARK       I    between atoms: C_22  and  N_20 
ROOT
ATOM      1  C   LIG d   1      -2.262  90.972 118.682  0.00  0.00     0.161 C 
ATOM      2  C   LIG d   1      -1.209  91.316 119.546  0.00  0.00     0.016 C 
ATOM      3  C   LIG d   1      -1.051  92.605 120.105  0.00  0.00     0.038 C 
ATOM      4  C   LIG d   1      -2.027  93.602 119.958  0.00  0.00     0.028 C 
ATOM      5  C   LIG d   1      -2.852  93.458 118.684  0.00  0.00    -0.047 C 
ATOM      6  C   LIG d   1      -3.397  92.014 118.599  0.00  0.00     0.091 C 
ENDROOT
BRANCH   1   7
ATOM      7  O   LIG d   1      -2.792  89.682 119.047  0.00  0.00    -0.368 OA
BRANCH   7   8
ATOM      8  C   LIG d   1      -2.413  88.573 118.195  0.00  0.00     0.119 C 
BRANCH   8   9
ATOM      9  C   LIG d   1      -1.645  87.561 119.066  0.00  0.00     0.028 C 
ATOM     10  C   LIG d   1      -2.142  87.544 120.522  0.00  0.00     0.006 C 
ENDBRANCH   8   9
BRANCH   8  11
ATOM     11  C   LIG d   1      -1.421  89.014 117.115  0.00  0.00     0.028 C 
ATOM     12  C   LIG d   1      -0.271  88.013 116.918  0.00  0.00     0.006 C 
ENDBRANCH   8  11
ENDBRANCH   7   8
ENDBRANCH   1   7
BRANCH   6  13
ATOM     13  N   LIG d   1      -4.146  91.764 117.340  0.00  0.00    -0.311 N 
ATOM     14  C   LIG d   1      -5.441  92.037 117.190  0.00  0.00     0.210 C 
ATOM     15  C   LIG d   1      -6.022  91.683 115.818  0.00  0.00     0.109 C 
ATOM     16  O   LIG d   1      -6.156  92.569 118.053  0.00  0.00    -0.276 OA
ATOM     17  H   LIG d   1      -3.635  91.363 116.577  0.00  0.00     0.149 HD
ENDBRANCH   6  13
BRANCH   5  18
ATOM     18  N   LIG d   1      -3.918  94.477 118.726  0.00  0.00     0.381 N 
ATOM     19  H   LIG d   1      -4.573  94.312 117.988  0.00  0.00    -0.090 HD
ATOM     20  H   LIG d   1      -3.508  95.383 118.587  0.00  0.00    -0.090 HD
ATOM     21  H   LIG d   1      -4.384  94.447 119.606  0.00  0.00    -0.090 HD
ENDBRANCH   5  18
BRANCH   3  22
ATOM     22  C   LIG d   1       0.114  92.919 120.789  0.00  0.00     0.382 C 
ATOM     23  O   LIG d   1       0.070  93.681 121.785  0.00  0.00    -0.241 OA
ATOM     24  O   LIG d   1       1.213  92.486 120.396  0.00  0.00    -0.241 OA
ENDBRANCH   3  22
TORSDOF 7
ENDMDL
MODEL 6
REMARK VINA RESULT:      -4.2      5.066      7.520
REMARK  7 active torsions:
REMARK  status: ('A' for Active; 'I' for Inactive)
REMARK    1  A    between atoms: C_2  and  C_3 
REMARK    2  A    between atoms: C_3  and  O_6 
REMARK    3  A    between atoms: C_3  and  C_4 
REMARK    4  A    between atoms: C_7  and  O_6 
REMARK    5  A    between atoms: C_9  and  C_10 
REMARK    6  A    between atoms: N_15  and  C_14 
REMARK    7  A    between atoms: N_20  and  C_19 
REMARK       I    between atoms: C_22  and  N_20 
ROOT
ATOM      1  C   LIG d   1       0.558  90.716 119.069  0.00  0.00     0.161 C 
ATOM      2  C   LIG d   1       1.722  91.146 118.410  0.00  0.00     0.016 C 
ATOM      3  C   LIG d   1       2.293  90.460 117.313  0.00  0.00     0.038 C 
ATOM      4  C   LIG d   1       1.650  89.375 116.701  0.00  0.00     0.028 C 
ATOM      5  C   LIG d   1       0.735  88.602 117.645  0.00  0.00    -0.047 C 
ATOM      6  C   LIG d   1      -0.219  89.597 118.345  0.00  0.00     0.091 C 
ENDROOT
BRANCH   1   7
ATOM      7  O   LIG d   1      -0.305  91.843 119.321  0.00  0.00    -0.368 OA
BRANCH   7   8
ATOM      8  C   LIG d   1      -1.321  92.104 118.321  0.00  0.00     0.119 C 
BRANCH   8   9
ATOM      9  C   LIG d   1      -0.938  93.413 117.604  0.00  0.00     0.028 C 
ATOM     10  C   LIG d   1      -1.649  94.639 118.201  0.00  0.00     0.006 C 
ENDBRANCH   8   9
BRANCH   8  11
ATOM     11  C   LIG d   1      -2.681  92.378 118.968  0.00  0.00     0.028 C 
ATOM     12  C   LIG d   1      -2.723  91.992 120.455  0.00  0.00     0.006 C 
ENDBRANCH   8  11
ENDBRANCH   7   8
ENDBRANCH   1   7
BRANCH   6  13
ATOM     13  N   LIG d   1      -1.092  88.934 119.349  0.00  0.00    -0.311 N 
ATOM     14  C   LIG d   1      -2.361  88.603 119.113  0.00  0.00     0.210 C 
ATOM     15  C   LIG d   1      -3.088  87.947 120.290  0.00  0.00     0.109 C 
ATOM     16  O   LIG d   1      -2.943  88.763 118.029  0.00  0.00    -0.276 OA
ATOM     17  H   LIG d   1      -0.690  88.739 120.245  0.00  0.00     0.149 HD
ENDBRANCH   6  13
BRANCH   5  18
ATOM     18  N   LIG d   1       0.025  87.586 116.845  0.00  0.00     0.381 N 
ATOM     19  H   LIG d   1       0.194  86.676 117.225  0.00  0.00    -0.090 HD
ATOM     20  H   LIG d   1       0.380  87.606 115.905  0.00  0.00    -0.090 HD
ATOM     21  H   LIG d   1      -0.953  87.776 116.842  0.00  0.00    -0.090 HD
ENDBRANCH   5  18
BRANCH   3  22
ATOM     22  C   LIG d   1       3.542  90.837 116.843  0.00  0.00     0.382 C 
ATOM     23  O   LIG d   1       4.018  91.955 117.153  0.00  0.00    -0.241 OA
ATOM     24  O   LIG d   1       4.179  90.090 116.076  0.00  0.00    -0.241 OA
ENDBRANCH   3  22
TORSDOF 7
ENDMDL
MODEL 7
REMARK VINA RESULT:      -4.1      3.492      6.214
REMARK  7 active torsions:
REMARK  status: ('A' for Active; 'I' for Inactive)
REMARK    1  A    between atoms: C_2  and  C_3 
REMARK    2  A    between atoms: C_3  and  O_6 
REMARK    3  A    between atoms: C_3  and  C_4 
REMARK    4  A    between atoms: C_7  and  O_6 
REMARK    5  A    between atoms: C_9  and  C_10 
REMARK    6  A    between atoms: N_15  and  C_14 
REMARK    7  A    between atoms: N_20  and  C_19 
REMARK       I    between atoms: C_22  and  N_20 
ROOT
ATOM      1  C   LIG d   1      -2.504  90.424 118.300  0.00  0.00     0.161 C 
ATOM      2  C   LIG d   1      -3.568  90.510 117.386  0.00  0.00     0.016 C 
ATOM      3  C   LIG d   1      -4.482  91.588 117.355  0.00  0.00     0.038 C 
ATOM      4  C   LIG d   1      -4.304  92.734 118.144  0.00  0.00     0.028 C 
ATOM      5  C   LIG d   1      -3.536  92.468 119.434  0.00  0.00    -0.047 C 
ATOM      6  C   LIG d   1      -2.228  91.718 119.094  0.00  0.00     0.091 C 
ENDROOT
BRANCH   1   7
ATOM      7  O   LIG d   1      -1.310  89.988 117.621  0.00  0.00    -0.368 OA
BRANCH   7   8
ATOM      8  C   LIG d   1      -0.716  88.758 118.103  0.00  0.00     0.119 C 
BRANCH   8   9
ATOM      9  C   LIG d   1      -0.372  87.897 116.872  0.00  0.00     0.028 C 
ATOM     10  C   LIG d   1       1.141  87.837 116.602  0.00  0.00     0.006 C 
ENDBRANCH   8   9
BRANCH   8  11
ATOM     11  C   LIG d   1      -1.723  87.931 118.907  0.00  0.00     0.028 C 
ATOM     12  C   LIG d   1      -1.175  86.552 119.310  0.00  0.00     0.006 C 
ENDBRANCH   8  11
ENDBRANCH   7   8
ENDBRANCH   1   7
BRANCH   6  13
ATOM     13  N   LIG d   1      -1.457  91.344 120.308  0.00  0.00    -0.311 N 
ATOM     14  C   LIG d   1      -0.483  92.096 120.819  0.00  0.00     0.210 C 
ATOM     15  C   LIG d   1       0.197  91.516 122.063  0.00  0.00     0.109 C 
ATOM     16  O   LIG d   1      -0.141  93.204 120.379  0.00  0.00    -0.276 OA
ATOM     17  H   LIG d   1      -1.691  90.475 120.748  0.00  0.00     0.149 HD
ENDBRANCH   6  13
BRANCH   5  18
ATOM     18  N   LIG d   1      -3.302  93.769 120.090  0.00  0.00     0.381 N 
ATOM     19  H   LIG d   1      -2.838  93.628 120.965  0.00  0.00    -0.090 HD
ATOM     20  H   LIG d   1      -4.189  94.206 120.270  0.00  0.00    -0.090 HD
ATOM     21  H   LIG d   1      -2.749  94.353 119.502  0.00  0.00    -0.090 HD
ENDBRANCH   5  18
BRANCH   3  22
ATOM     22  C   LIG d   1      -5.613  91.508 116.556  0.00  0.00     0.382 C 
ATOM     23  O   LIG d   1      -6.531  92.353 116.682  0.00  0.00    -0.241 OA
ATOM     24  O   LIG d   1      -5.746  90.575 115.742  0.00  0.00    -0.241 OA
ENDBRANCH   3  22
TORSDOF 7
ENDMDL
MODEL 8
REMARK VINA RESULT:      -4.1      5.487      8.927
REMARK  7 active torsions:
REMARK  status: ('A' for Active; 'I' for Inactive)
REMARK    1  A    between atoms: C_2  and  C_3 
REMARK    2  A    between atoms: C_3  and  O_6 
REMARK    3  A    between atoms: C_3  and  C_4 
REMARK    4  A    between atoms: C_7  and  O_6 
REMARK    5  A    between atoms: C_9  and  C_10 
REMARK    6  A    between atoms: N_15  and  C_14 
REMARK    7  A    between atoms: N_20  and  C_19 
REMARK       I    between atoms: C_22  and  N_20 
ROOT
ATOM      1  C   LIG d   1       0.043  90.309 116.880  0.00  0.00     0.161 C 
ATOM      2  C   LIG d   1       1.437  90.346 117.045  0.00  0.00     0.016 C 
ATOM      3  C   LIG d   1       2.079  91.061 118.082  0.00  0.00     0.038 C 
ATOM      4  C   LIG d   1       1.358  91.668 119.121  0.00  0.00     0.028 C 
ATOM      5  C   LIG d   1      -0.053  92.082 118.717  0.00  0.00    -0.047 C 
ATOM      6  C   LIG d   1      -0.765  90.873 118.068  0.00  0.00     0.091 C 
ENDROOT
BRANCH   1   7
ATOM      7  O   LIG d   1      -0.378  88.963 116.583  0.00  0.00    -0.368 OA
BRANCH   7   8
ATOM      8  C   LIG d   1       0.421  87.902 117.163  0.00  0.00     0.119 C 
BRANCH   8   9
ATOM      9  C   LIG d   1       0.643  86.839 116.070  0.00  0.00     0.028 C 
ATOM     10  C   LIG d   1       2.008  86.142 116.199  0.00  0.00     0.006 C 
ENDBRANCH   8   9
BRANCH   8  11
ATOM     11  C   LIG d   1      -0.338  87.181 118.281  0.00  0.00     0.028 C 
ATOM     12  C   LIG d   1       0.055  87.675 119.683  0.00  0.00     0.006 C 
ENDBRANCH   8  11
ENDBRANCH   7   8
ENDBRANCH   1   7
BRANCH   6  13
ATOM     13  N   LIG d   1      -2.121  91.215 117.567  0.00  0.00    -0.311 N 
ATOM     14  C   LIG d   1      -3.177  90.415 117.705  0.00  0.00     0.210 C 
ATOM     15  C   LIG d   1      -4.478  90.950 117.099  0.00  0.00     0.109 C 
ATOM     16  O   LIG d   1      -3.166  89.326 118.299  0.00  0.00    -0.276 OA
ATOM     17  H   LIG d   1      -2.227  92.094 117.100  0.00  0.00     0.149 HD
ENDBRANCH   6  13
BRANCH   5  18
ATOM     18  N   LIG d   1      -0.737  92.574 119.928  0.00  0.00     0.381 N 
ATOM     19  H   LIG d   1      -1.558  92.027 120.099  0.00  0.00    -0.090 HD
ATOM     20  H   LIG d   1      -1.019  93.527 119.778  0.00  0.00    -0.090 HD
ATOM     21  H   LIG d   1      -0.124  92.520 120.711  0.00  0.00    -0.090 HD
ENDBRANCH   5  18
BRANCH   3  22
ATOM     22  C   LIG d   1       3.458  91.208 118.065  0.00  0.00     0.382 C 
ATOM     23  O   LIG d   1       4.013  91.798 117.107  0.00  0.00    -0.241 OA
ATOM     24  O   LIG d   1       4.157  90.719 118.973  0.00  0.00    -0.241 OA
ENDBRANCH   3  22
TORSDOF 7
ENDMDL
MODEL 9
REMARK VINA RESULT:      -4.0      2.370      4.877
REMARK  7 active torsions:
REMARK  status: ('A' for Active; 'I' for Inactive)
REMARK    1  A    between atoms: C_2  and  C_3 
REMARK    2  A    between atoms: C_3  and  O_6 
REMARK    3  A    between atoms: C_3  and  C_4 
REMARK    4  A    between atoms: C_7  and  O_6 
REMARK    5  A    between atoms: C_9  and  C_10 
REMARK    6  A    between atoms: N_15  and  C_14 
REMARK    7  A    between atoms: N_20  and  C_19 
REMARK       I    between atoms: C_22  and  N_20 
ROOT
ATOM      1  C   LIG d   1      -5.855  93.621 119.550  0.00  0.00     0.161 C 
ATOM      2  C   LIG d   1      -5.899  92.864 118.368  0.00  0.00     0.016 C 
ATOM      3  C   LIG d   1      -6.908  93.010 117.388  0.00  0.00     0.038 C 
ATOM      4  C   LIG d   1      -7.863  94.034 117.454  0.00  0.00     0.028 C 
ATOM      5  C   LIG d   1      -8.159  94.496 118.877  0.00  0.00    -0.047 C 
ATOM      6  C   LIG d   1      -6.825  94.820 119.587  0.00  0.00     0.091 C 
ENDROOT
BRANCH   1   7
ATOM      7  O   LIG d   1      -4.505  94.061 119.799  0.00  0.00    -0.368 OA
BRANCH   7   8
ATOM      8  C   LIG d   1      -3.467  93.392 119.041  0.00  0.00     0.119 C 
BRANCH   8   9
ATOM      9  C   LIG d   1      -2.705  92.471 120.013  0.00  0.00     0.028 C 
ATOM     10  C   LIG d   1      -1.181  92.554 119.828  0.00  0.00     0.006 C 
ENDBRANCH   8   9
BRANCH   8  11
ATOM     11  C   LIG d   1      -2.424  94.388 118.525  0.00  0.00     0.028 C 
ATOM     12  C   LIG d   1      -2.735  95.838 118.927  0.00  0.00     0.006 C 
ENDBRANCH   8  11
ENDBRANCH   7   8
ENDBRANCH   1   7
BRANCH   6  13
ATOM     13  N   LIG d   1      -7.018  95.198 121.012  0.00  0.00    -0.311 N 
ATOM     14  C   LIG d   1      -7.240  96.448 121.415  0.00  0.00     0.210 C 
ATOM     15  C   LIG d   1      -7.392  96.622 122.929  0.00  0.00     0.109 C 
ATOM     16  O   LIG d   1      -7.358  97.425 120.659  0.00  0.00    -0.276 OA
ATOM     17  H   LIG d   1      -6.970  94.463 121.690  0.00  0.00     0.149 HD
ENDBRANCH   6  13
BRANCH   5  18
ATOM     18  N   LIG d   1      -9.065  95.656 118.790  0.00  0.00     0.381 N 
ATOM     19  H   LIG d   1      -8.653  96.366 118.218  0.00  0.00    -0.090 HD
ATOM     20  H   LIG d   1      -9.200  96.034 119.712  0.00  0.00    -0.090 HD
ATOM     21  H   LIG d   1      -9.941  95.377 118.407  0.00  0.00    -0.090 HD
ENDBRANCH   5  18
BRANCH   3  22
ATOM     22  C   LIG d   1      -6.991  92.098 116.347  0.00  0.00     0.382 C 
ATOM     23  O   LIG d   1      -5.946  91.685 115.790  0.00  0.00    -0.241 OA
ATOM     24  O   LIG d   1      -8.101  91.717 115.928  0.00  0.00    -0.241 OA
ENDBRANCH   3  22
TORSDOF 7
ENDMDL
