MODEL 1
REMARK VINA RESULT:      -4.8      0.000      0.000
REMARK  7 active torsions:
REMARK  status: ('A' for Active; 'I' for Inactive)
REMARK    1  A    between atoms: C_2  and  C_3 
REMARK    2  A    between atoms: C_3  and  O_6 
REMARK    3  A    between atoms: C_3  and  C_4 
REMARK    4  A    between atoms: C_7  and  O_6 
REMARK    5  A    between atoms: C_9  and  C_10 
REMARK    6  A    between atoms: N_15  and  C_14 
REMARK    7  A    between atoms: N_20  and  C_19 
REMARK       I    between atoms: C_22  and  N_20 
ROOT
ATOM      1  C   LIG d   1      -3.947  91.103 117.996  0.00  0.00     0.161 C 
ATOM      2  C   LIG d   1      -5.012  90.667 117.190  0.00  0.00     0.016 C 
ATOM      3  C   LIG d   1      -6.144  91.463 116.898  0.00  0.00     0.038 C 
ATOM      4  C   LIG d   1      -6.216  92.813 117.271  0.00  0.00     0.028 C 
ATOM      5  C   LIG d   1      -5.396  93.144 118.513  0.00  0.00    -0.047 C 
ATOM      6  C   LIG d   1      -3.957  92.612 118.320  0.00  0.00     0.091 C 
ENDROOT
BRANCH   1   7
ATOM      7  O   LIG d   1      -2.693  90.729 117.393  0.00  0.00    -0.368 OA
BRANCH   7   8
ATOM      8  C   LIG d   1      -2.110  89.485 117.855  0.00  0.00     0.119 C 
BRANCH   8   9
ATOM      9  C   LIG d   1      -2.501  89.312 119.335  0.00  0.00     0.028 C 
ATOM     10  C   LIG d   1      -2.939  87.874 119.662  0.00  0.00     0.006 C 
ENDBRANCH   8   9
BRANCH   8  11
ATOM     11  C   LIG d   1      -0.580  89.549 117.844  0.00  0.00     0.028 C 
ATOM     12  C   LIG d   1      -0.045  90.957 117.540  0.00  0.00     0.006 C 
ENDBRANCH   8  11
ENDBRANCH   7   8
ENDBRANCH   1   7
BRANCH   6  13
ATOM     13  N   LIG d   1      -3.110  92.819 119.524  0.00  0.00    -0.311 N 
ATOM     14  C   LIG d   1      -1.974  93.514 119.510  0.00  0.00     0.210 C 
ATOM     15  C   LIG d   1      -1.245  93.588 120.855  0.00  0.00     0.109 C 
ATOM     16  O   LIG d   1      -1.517  94.103 118.518  0.00  0.00    -0.276 OA
ATOM     17  H   LIG d   1      -3.423  92.402 120.378  0.00  0.00     0.149 HD
ENDBRANCH   6  13
BRANCH   5  18
ATOM     18  N   LIG d   1      -5.451  94.605 118.707  0.00  0.00     0.381 N 
ATOM     19  H   LIG d   1      -5.518  94.815 119.683  0.00  0.00    -0.090 HD
ATOM     20  H   LIG d   1      -6.271  94.963 118.250  0.00  0.00    -0.090 HD
ATOM     21  H   LIG d   1      -4.635  95.031 118.325  0.00  0.00    -0.090 HD
ENDBRANCH   5  18
BRANCH   3  22
ATOM     22  C   LIG d   1      -7.236  90.896 116.259  0.00  0.00     0.382 C 
ATOM     23  O   LIG d   1      -7.457  89.666 116.366  0.00  0.00    -0.241 OA
ATOM     24  O   LIG d   1      -7.978  91.592 115.539  0.00  0.00    -0.241 OA
ENDBRANCH   3  22
TORSDOF 7
ENDMDL
MODEL 2
REMARK VINA RESULT:      -4.8      1.854      2.365
REMARK  7 active torsions:
REMARK  status: ('A' for Active; 'I' for Inactive)
REMARK    1  A    between atoms: C_2  and  C_3 
REMARK    2  A    between atoms: C_3  and  O_6 
REMARK    3  A    between atoms: C_3  and  C_4 
REMARK    4  A    between atoms: C_7  and  O_6 
REMARK    5  A    between atoms: C_9  and  C_10 
REMARK    6  A    between atoms: N_15  and  C_14 
REMARK    7  A    between atoms: N_20  and  C_19 
REMARK       I    between atoms: C_22  and  N_20 
ROOT
ATOM      1  C   LIG d   1      -4.634  92.150 119.142  0.00  0.00     0.161 C 
ATOM      2  C   LIG d   1      -5.021  91.194 118.188  0.00  0.00     0.016 C 
ATOM      3  C   LIG d   1      -6.005  91.434 117.201  0.00  0.00     0.038 C 
ATOM      4  C   LIG d   1      -6.564  92.705 117.004  0.00  0.00     0.028 C 
ATOM      5  C   LIG d   1      -6.574  93.563 118.265  0.00  0.00    -0.047 C 
ATOM      6  C   LIG d   1      -5.153  93.578 118.873  0.00  0.00     0.091 C 
ENDROOT
BRANCH   1   7
ATOM      7  O   LIG d   1      -3.199  92.156 119.274  0.00  0.00    -0.368 OA
BRANCH   7   8
ATOM      8  C   LIG d   1      -2.445  92.107 118.038  0.00  0.00     0.119 C 
BRANCH   8   9
ATOM      9  C   LIG d   1      -1.285  91.113 118.242  0.00  0.00     0.028 C 
ATOM     10  C   LIG d   1      -1.634  89.697 117.754  0.00  0.00     0.006 C 
ENDBRANCH   8   9
BRANCH   8  11
ATOM     11  C   LIG d   1      -1.778  93.453 117.739  0.00  0.00     0.028 C 
ATOM     12  C   LIG d   1      -0.265  93.441 118.009  0.00  0.00     0.006 C 
ENDBRANCH   8  11
ENDBRANCH   7   8
ENDBRANCH   1   7
BRANCH   6  13
ATOM     13  N   LIG d   1      -5.094  94.327 120.156  0.00  0.00    -0.311 N 
ATOM     14  C   LIG d   1      -4.303  95.380 120.354  0.00  0.00     0.210 C 
ATOM     15  C   LIG d   1      -4.381  95.993 121.756  0.00  0.00     0.109 C 
ATOM     16  O   LIG d   1      -3.569  95.885 119.491  0.00  0.00    -0.276 OA
ATOM     17  H   LIG d   1      -5.681  94.004 120.900  0.00  0.00     0.149 HD
ENDBRANCH   6  13
BRANCH   5  18
ATOM     18  N   LIG d   1      -7.056  94.906 117.886  0.00  0.00     0.381 N 
ATOM     19  H   LIG d   1      -6.807  95.567 118.595  0.00  0.00    -0.090 HD
ATOM     20  H   LIG d   1      -8.057  94.883 117.813  0.00  0.00    -0.090 HD
ATOM     21  H   LIG d   1      -6.657  95.177 117.014  0.00  0.00    -0.090 HD
ENDBRANCH   5  18
BRANCH   3  22
ATOM     22  C   LIG d   1      -6.468  90.383 116.423  0.00  0.00     0.382 C 
ATOM     23  O   LIG d   1      -5.708  89.843 115.583  0.00  0.00    -0.241 OA
ATOM     24  O   LIG d   1      -7.648  89.999 116.518  0.00  0.00    -0.241 OA
ENDBRANCH   3  22
TORSDOF 7
ENDMDL
MODEL 3
REMARK VINA RESULT:      -4.7      2.940      5.392
REMARK  7 active torsions:
REMARK  status: ('A' for Active; 'I' for Inactive)
REMARK    1  A    between atoms: C_2  and  C_3 
REMARK    2  A    between atoms: C_3  and  O_6 
REMARK    3  A    between atoms: C_3  and  C_4 
REMARK    4  A    between atoms: C_7  and  O_6 
REMARK    5  A    between atoms: C_9  and  C_10 
REMARK    6  A    between atoms: N_15  and  C_14 
REMARK    7  A    between atoms: N_20  and  C_19 
REMARK       I    between atoms: C_22  and  N_20 
ROOT
ATOM      1  C   LIG d   1      -5.029  93.736 119.211  0.00  0.00     0.161 C 
ATOM      2  C   LIG d   1      -4.863  94.625 120.287  0.00  0.00     0.016 C 
ATOM      3  C   LIG d   1      -5.793  95.640 120.607  0.00  0.00     0.038 C 
ATOM      4  C   LIG d   1      -7.034  95.740 119.961  0.00  0.00     0.028 C 
ATOM      5  C   LIG d   1      -7.024  95.185 118.540  0.00  0.00    -0.047 C 
ATOM      6  C   LIG d   1      -6.429  93.758 118.564  0.00  0.00     0.091 C 
ENDROOT
BRANCH   1   7
ATOM      7  O   LIG d   1      -4.690  92.398 119.627  0.00  0.00    -0.368 OA
BRANCH   7   8
ATOM      8  C   LIG d   1      -3.343  91.958 119.323  0.00  0.00     0.119 C 
BRANCH   8   9
ATOM      9  C   LIG d   1      -2.948  92.578 117.969  0.00  0.00     0.028 C 
ATOM     10  C   LIG d   1      -1.523  93.157 117.982  0.00  0.00     0.006 C 
ENDBRANCH   8   9
BRANCH   8  11
ATOM     11  C   LIG d   1      -3.286  90.443 119.108  0.00  0.00     0.028 C 
ATOM     12  C   LIG d   1      -3.531  90.040 117.645  0.00  0.00     0.006 C 
ENDBRANCH   8  11
ENDBRANCH   7   8
ENDBRANCH   1   7
BRANCH   6  13
ATOM     13  N   LIG d   1      -6.304  93.173 117.203  0.00  0.00    -0.311 N 
ATOM     14  C   LIG d   1      -6.749  91.959 116.883  0.00  0.00     0.210 C 
ATOM     15  C   LIG d   1      -6.502  91.542 115.430  0.00  0.00     0.109 C 
ATOM     16  O   LIG d   1      -7.353  91.201 117.657  0.00  0.00    -0.276 OA
ATOM     17  H   LIG d   1      -5.855  93.733 116.506  0.00  0.00     0.149 HD
ENDBRANCH   6  13
BRANCH   5  18
ATOM     18  N   LIG d   1      -8.409  95.225 118.036  0.00  0.00     0.381 N 
ATOM     19  H   LIG d   1      -8.443  95.741 117.179  0.00  0.00    -0.090 HD
ATOM     20  H   LIG d   1      -8.987  95.696 118.710  0.00  0.00    -0.090 HD
ATOM     21  H   LIG d   1      -8.745  94.299 117.888  0.00  0.00    -0.090 HD
ENDBRANCH   5  18
BRANCH   3  22
ATOM     22  C   LIG d   1      -5.467  96.595 121.558  0.00  0.00     0.382 C 
ATOM     23  O   LIG d   1      -6.108  96.652 122.635  0.00  0.00    -0.241 OA
ATOM     24  O   LIG d   1      -4.570  97.430 121.334  0.00  0.00    -0.241 OA
ENDBRANCH   3  22
TORSDOF 7
ENDMDL
MODEL 4
REMARK VINA RESULT:      -4.7      2.190      4.481
REMARK  7 active torsions:
REMARK  status: ('A' for Active; 'I' for Inactive)
REMARK    1  A    between atoms: C_2  and  C_3 
REMARK    2  A    between atoms: C_3  and  O_6 
REMARK    3  A    between atoms: C_3  and  C_4 
REMARK    4  A    between atoms: C_7  and  O_6 
REMARK    5  A    between atoms: C_9  and  C_10 
REMARK    6  A    between atoms: N_15  and  C_14 
REMARK    7  A    between atoms: N_20  and  C_19 
REMARK       I    between atoms: C_22  and  N_20 
ROOT
ATOM      1  C   LIG d   1      -5.127  92.926 118.439  0.00  0.00     0.161 C 
ATOM      2  C   LIG d   1      -6.200  92.342 117.745  0.00  0.00     0.016 C 
ATOM      3  C   LIG d   1      -6.071  91.183 116.945  0.00  0.00     0.038 C 
ATOM      4  C   LIG d   1      -4.883  90.438 116.906  0.00  0.00     0.028 C 
ATOM      5  C   LIG d   1      -3.637  91.270 117.187  0.00  0.00    -0.047 C 
ATOM      6  C   LIG d   1      -3.849  92.064 118.497  0.00  0.00     0.091 C 
ENDROOT
BRANCH   1   7
ATOM      7  O   LIG d   1      -5.546  93.291 119.769  0.00  0.00    -0.368 OA
BRANCH   7   8
ATOM      8  C   LIG d   1      -6.976  93.341 119.996  0.00  0.00     0.119 C 
BRANCH   8   9
ATOM      9  C   LIG d   1      -7.353  94.813 120.250  0.00  0.00     0.028 C 
ATOM     10  C   LIG d   1      -7.745  95.550 118.958  0.00  0.00     0.006 C 
ENDBRANCH   8   9
BRANCH   8  11
ATOM     11  C   LIG d   1      -7.364  92.596 121.277  0.00  0.00     0.028 C 
ATOM     12  C   LIG d   1      -6.211  91.757 121.850  0.00  0.00     0.006 C 
ENDBRANCH   8  11
ENDBRANCH   7   8
ENDBRANCH   1   7
BRANCH   6  13
ATOM     13  N   LIG d   1      -2.710  92.969 118.802  0.00  0.00    -0.311 N 
ATOM     14  C   LIG d   1      -1.677  92.616 119.566  0.00  0.00     0.210 C 
ATOM     15  C   LIG d   1      -0.621  93.706 119.769  0.00  0.00     0.109 C 
ATOM     16  O   LIG d   1      -1.520  91.492 120.067  0.00  0.00    -0.276 OA
ATOM     17  H   LIG d   1      -2.741  93.889 118.409  0.00  0.00     0.149 HD
ENDBRANCH   6  13
BRANCH   5  18
ATOM     18  N   LIG d   1      -2.489  90.346 117.251  0.00  0.00     0.381 N 
ATOM     19  H   LIG d   1      -2.133  90.184 116.330  0.00  0.00    -0.090 HD
ATOM     20  H   LIG d   1      -2.799  89.468 117.628  0.00  0.00    -0.090 HD
ATOM     21  H   LIG d   1      -1.774  90.730 117.828  0.00  0.00    -0.090 HD
ENDBRANCH   5  18
BRANCH   3  22
ATOM     22  C   LIG d   1      -7.128  90.781 116.142  0.00  0.00     0.382 C 
ATOM     23  O   LIG d   1      -7.729  91.622 115.430  0.00  0.00    -0.241 OA
ATOM     24  O   LIG d   1      -7.516  89.598 116.154  0.00  0.00    -0.241 OA
ENDBRANCH   3  22
TORSDOF 7
ENDMDL
MODEL 5
REMARK VINA RESULT:      -4.7      1.617      1.898
REMARK  7 active torsions:
REMARK  status: ('A' for Active; 'I' for Inactive)
REMARK    1  A    between atoms: C_2  and  C_3 
REMARK    2  A    between atoms: C_3  and  O_6 
REMARK    3  A    between atoms: C_3  and  C_4 
REMARK    4  A    between atoms: C_7  and  O_6 
REMARK    5  A    between atoms: C_9  and  C_10 
REMARK    6  A    between atoms: N_15  and  C_14 
REMARK    7  A    between atoms: N_20  and  C_19 
REMARK       I    between atoms: C_22  and  N_20 
ROOT
ATOM      1  C   LIG d   1      -2.352  90.295 117.992  0.00  0.00     0.161 C 
ATOM      2  C   LIG d   1      -3.559  89.958 117.357  0.00  0.00     0.016 C 
ATOM      3  C   LIG d   1      -4.587  90.892 117.093  0.00  0.00     0.038 C 
ATOM      4  C   LIG d   1      -4.413  92.267 117.312  0.00  0.00     0.028 C 
ATOM      5  C   LIG d   1      -3.409  92.582 118.415  0.00  0.00    -0.047 C 
ATOM      6  C   LIG d   1      -2.099  91.810 118.138  0.00  0.00     0.091 C 
ENDROOT
BRANCH   1   7
ATOM      7  O   LIG d   1      -1.249  89.666 117.310  0.00  0.00    -0.368 OA
BRANCH   7   8
ATOM      8  C   LIG d   1      -0.767  88.426 117.885  0.00  0.00     0.119 C 
BRANCH   8   9
ATOM      9  C   LIG d   1      -1.349  88.319 119.308  0.00  0.00     0.028 C 
ATOM     10  C   LIG d   1      -1.451  86.863 119.792  0.00  0.00     0.006 C 
ENDBRANCH   8   9
BRANCH   8  11
ATOM     11  C   LIG d   1       0.753  88.450 118.068  0.00  0.00     0.028 C 
ATOM     12  C   LIG d   1       1.386  89.778 117.623  0.00  0.00     0.006 C 
ENDBRANCH   8  11
ENDBRANCH   7   8
ENDBRANCH   1   7
BRANCH   6  13
ATOM     13  N   LIG d   1      -1.092  91.996 119.214  0.00  0.00    -0.311 N 
ATOM     14  C   LIG d   1      -0.145  92.932 119.179  0.00  0.00     0.210 C 
ATOM     15  C   LIG d   1       0.804  92.938 120.382  0.00  0.00     0.109 C 
ATOM     16  O   LIG d   1      -0.020  93.778 118.280  0.00  0.00    -0.276 OA
ATOM     17  H   LIG d   1      -1.139  91.372 119.996  0.00  0.00     0.149 HD
ENDBRANCH   6  13
BRANCH   5  18
ATOM     18  N   LIG d   1      -3.222  94.045 118.443  0.00  0.00     0.381 N 
ATOM     19  H   LIG d   1      -2.254  94.261 118.571  0.00  0.00    -0.090 HD
ATOM     20  H   LIG d   1      -3.734  94.423 119.221  0.00  0.00    -0.090 HD
ATOM     21  H   LIG d   1      -3.550  94.447 117.593  0.00  0.00    -0.090 HD
ENDBRANCH   5  18
BRANCH   3  22
ATOM     22  C   LIG d   1      -5.820  90.448 116.641  0.00  0.00     0.382 C 
ATOM     23  O   LIG d   1      -6.848  90.639 117.334  0.00  0.00    -0.241 OA
ATOM     24  O   LIG d   1      -5.911  89.819 115.569  0.00  0.00    -0.241 OA
ENDBRANCH   3  22
TORSDOF 7
ENDMDL
MODEL 6
REMARK VINA RESULT:      -4.6      2.692      4.162
REMARK  7 active torsions:
REMARK  status: ('A' for Active; 'I' for Inactive)
REMARK    1  A    between atoms: C_2  and  C_3 
REMARK    2  A    between atoms: C_3  and  O_6 
REMARK    3  A    between atoms: C_3  and  C_4 
REMARK    4  A    between atoms: C_7  and  O_6 
REMARK    5  A    between atoms: C_9  and  C_10 
REMARK    6  A    between atoms: N_15  and  C_14 
REMARK    7  A    between atoms: N_20  and  C_19 
REMARK       I    between atoms: C_22  and  N_20 
ROOT
ATOM      1  C   LIG d   1      -6.126  93.102 119.438  0.00  0.00     0.161 C 
ATOM      2  C   LIG d   1      -7.368  93.734 119.259  0.00  0.00     0.016 C 
ATOM      3  C   LIG d   1      -7.515  95.133 119.114  0.00  0.00     0.038 C 
ATOM      4  C   LIG d   1      -6.408  95.985 118.987  0.00  0.00     0.028 C 
ATOM      5  C   LIG d   1      -5.152  95.453 119.667  0.00  0.00    -0.047 C 
ATOM      6  C   LIG d   1      -4.899  94.004 119.191  0.00  0.00     0.091 C 
ENDROOT
BRANCH   1   7
ATOM      7  O   LIG d   1      -6.055  91.922 118.613  0.00  0.00    -0.368 OA
BRANCH   7   8
ATOM      8  C   LIG d   1      -5.596  92.122 117.254  0.00  0.00     0.119 C 
BRANCH   8   9
ATOM      9  C   LIG d   1      -6.827  92.029 116.331  0.00  0.00     0.028 C 
ATOM     10  C   LIG d   1      -7.288  90.579 116.112  0.00  0.00     0.006 C 
ENDBRANCH   8   9
BRANCH   8  11
ATOM     11  C   LIG d   1      -4.668  90.988 116.807  0.00  0.00     0.028 C 
ATOM     12  C   LIG d   1      -3.990  90.273 117.986  0.00  0.00     0.006 C 
ENDBRANCH   8  11
ENDBRANCH   7   8
ENDBRANCH   1   7
BRANCH   6  13
ATOM     13  N   LIG d   1      -3.736  93.378 119.872  0.00  0.00    -0.311 N 
ATOM     14  C   LIG d   1      -2.514  93.334 119.344  0.00  0.00     0.210 C 
ATOM     15  C   LIG d   1      -1.464  92.624 120.204  0.00  0.00     0.109 C 
ATOM     16  O   LIG d   1      -2.193  93.842 118.259  0.00  0.00    -0.276 OA
ATOM     17  H   LIG d   1      -3.900  92.968 120.771  0.00  0.00     0.149 HD
ENDBRANCH   6  13
BRANCH   5  18
ATOM     18  N   LIG d   1      -4.044  96.370 119.339  0.00  0.00     0.381 N 
ATOM     19  H   LIG d   1      -3.179  95.868 119.333  0.00  0.00    -0.090 HD
ATOM     20  H   LIG d   1      -3.991  97.082 120.047  0.00  0.00    -0.090 HD
ATOM     21  H   LIG d   1      -4.200  96.789 118.449  0.00  0.00    -0.090 HD
ENDBRANCH   5  18
BRANCH   3  22
ATOM     22  C   LIG d   1      -8.782  95.696 119.135  0.00  0.00     0.382 C 
ATOM     23  O   LIG d   1      -9.170  96.328 120.147  0.00  0.00    -0.241 OA
ATOM     24  O   LIG d   1      -9.557  95.543 118.173  0.00  0.00    -0.241 OA
ENDBRANCH   3  22
TORSDOF 7
ENDMDL
MODEL 7
REMARK VINA RESULT:      -4.5      2.602      5.275
REMARK  7 active torsions:
REMARK  status: ('A' for Active; 'I' for Inactive)
REMARK    1  A    between atoms: C_2  and  C_3 
REMARK    2  A    between atoms: C_3  and  O_6 
REMARK    3  A    between atoms: C_3  and  C_4 
REMARK    4  A    between atoms: C_7  and  O_6 
REMARK    5  A    between atoms: C_9  and  C_10 
REMARK    6  A    between atoms: N_15  and  C_14 
REMARK    7  A    between atoms: N_20  and  C_19 
REMARK       I    between atoms: C_22  and  N_20 
ROOT
ATOM      1  C   LIG d   1      -2.969  92.434 118.294  0.00  0.00     0.161 C 
ATOM      2  C   LIG d   1      -1.775  91.780 117.948  0.00  0.00     0.016 C 
ATOM      3  C   LIG d   1      -0.504  92.394 118.015  0.00  0.00     0.038 C 
ATOM      4  C   LIG d   1      -0.323  93.665 118.581  0.00  0.00     0.028 C 
ATOM      5  C   LIG d   1      -1.557  94.555 118.475  0.00  0.00    -0.047 C 
ATOM      6  C   LIG d   1      -2.781  93.783 119.018  0.00  0.00     0.091 C 
ENDROOT
BRANCH   1   7
ATOM      7  O   LIG d   1      -3.798  91.555 119.080  0.00  0.00    -0.368 OA
BRANCH   7   8
ATOM      8  C   LIG d   1      -4.987  91.046 118.426  0.00  0.00     0.119 C 
BRANCH   8   9
ATOM      9  C   LIG d   1      -4.982  91.576 116.979  0.00  0.00     0.028 C 
ATOM     10  C   LIG d   1      -5.526  90.546 115.975  0.00  0.00     0.006 C 
ENDBRANCH   8   9
BRANCH   8  11
ATOM     11  C   LIG d   1      -6.259  91.614 119.062  0.00  0.00     0.028 C 
ATOM     12  C   LIG d   1      -6.146  91.766 120.588  0.00  0.00     0.006 C 
ENDBRANCH   8  11
ENDBRANCH   7   8
ENDBRANCH   1   7
BRANCH   6  13
ATOM     13  N   LIG d   1      -4.045  94.551 118.874  0.00  0.00    -0.311 N 
ATOM     14  C   LIG d   1      -4.715  95.060 119.907  0.00  0.00     0.210 C 
ATOM     15  C   LIG d   1      -6.006  95.800 119.539  0.00  0.00     0.109 C 
ATOM     16  O   LIG d   1      -4.347  94.997 121.089  0.00  0.00    -0.276 OA
ATOM     17  H   LIG d   1      -4.399  94.677 117.946  0.00  0.00     0.149 HD
ENDBRANCH   6  13
BRANCH   5  18
ATOM     18  N   LIG d   1      -1.277  95.795 119.224  0.00  0.00     0.381 N 
ATOM     19  H   LIG d   1      -1.312  96.580 118.605  0.00  0.00    -0.090 HD
ATOM     20  H   LIG d   1      -0.351  95.740 119.610  0.00  0.00    -0.090 HD
ATOM     21  H   LIG d   1      -1.943  95.910 119.956  0.00  0.00    -0.090 HD
ENDBRANCH   5  18
BRANCH   3  22
ATOM     22  C   LIG d   1       0.600  91.750 117.476  0.00  0.00     0.382 C 
ATOM     23  O   LIG d   1       0.449  90.694 116.816  0.00  0.00    -0.241 OA
ATOM     24  O   LIG d   1       1.748  92.188 117.678  0.00  0.00    -0.241 OA
ENDBRANCH   3  22
TORSDOF 7
ENDMDL
MODEL 8
REMARK VINA RESULT:      -4.4      2.480      5.272
REMARK  7 active torsions:
REMARK  status: ('A' for Active; 'I' for Inactive)
REMARK    1  A    between atoms: C_2  and  C_3 
REMARK    2  A    between atoms: C_3  and  O_6 
REMARK    3  A    between atoms: C_3  and  C_4 
REMARK    4  A    between atoms: C_7  and  O_6 
REMARK    5  A    between atoms: C_9  and  C_10 
REMARK    6  A    between atoms: N_15  and  C_14 
REMARK    7  A    between atoms: N_20  and  C_19 
REMARK       I    between atoms: C_22  and  N_20 
ROOT
ATOM      1  C   LIG d   1      -1.717  90.706 117.550  0.00  0.00     0.161 C 
ATOM      2  C   LIG d   1      -0.316  90.601 117.587  0.00  0.00     0.016 C 
ATOM      3  C   LIG d   1       0.544  91.714 117.728  0.00  0.00     0.038 C 
ATOM      4  C   LIG d   1       0.053  93.001 117.994  0.00  0.00     0.028 C 
ATOM      5  C   LIG d   1      -1.357  93.234 117.461  0.00  0.00    -0.047 C 
ATOM      6  C   LIG d   1      -2.273  92.088 117.949  0.00  0.00     0.091 C 
ENDROOT
BRANCH   1   7
ATOM      7  O   LIG d   1      -2.306  89.674 118.365  0.00  0.00    -0.368 OA
BRANCH   7   8
ATOM      8  C   LIG d   1      -1.483  89.166 119.444  0.00  0.00     0.119 C 
BRANCH   8   9
ATOM      9  C   LIG d   1      -1.696  87.641 119.510  0.00  0.00     0.028 C 
ATOM     10  C   LIG d   1      -0.436  86.854 119.114  0.00  0.00     0.006 C 
ENDBRANCH   8   9
BRANCH   8  11
ATOM     11  C   LIG d   1      -1.949  89.700 120.801  0.00  0.00     0.028 C 
ATOM     12  C   LIG d   1      -0.934  90.657 121.446  0.00  0.00     0.006 C 
ENDBRANCH   8  11
ENDBRANCH   7   8
ENDBRANCH   1   7
BRANCH   6  13
ATOM     13  N   LIG d   1      -3.651  92.194 117.404  0.00  0.00    -0.311 N 
ATOM     14  C   LIG d   1      -4.663  92.746 118.071  0.00  0.00     0.210 C 
ATOM     15  C   LIG d   1      -6.006  92.734 117.335  0.00  0.00     0.109 C 
ATOM     16  O   LIG d   1      -4.569  93.274 119.190  0.00  0.00    -0.276 OA
ATOM     17  H   LIG d   1      -3.810  91.819 116.490  0.00  0.00     0.149 HD
ENDBRANCH   6  13
BRANCH   5  18
ATOM     18  N   LIG d   1      -1.795  94.563 117.927  0.00  0.00     0.381 N 
ATOM     19  H   LIG d   1      -1.735  95.222 117.176  0.00  0.00    -0.090 HD
ATOM     20  H   LIG d   1      -1.183  94.868 118.663  0.00  0.00    -0.090 HD
ATOM     21  H   LIG d   1      -2.732  94.515 118.262  0.00  0.00    -0.090 HD
ENDBRANCH   5  18
BRANCH   3  22
ATOM     22  C   LIG d   1       1.911  91.551 117.563  0.00  0.00     0.382 C 
ATOM     23  O   LIG d   1       2.359  90.505 117.035  0.00  0.00    -0.241 OA
ATOM     24  O   LIG d   1       2.705  92.418 117.975  0.00  0.00    -0.241 OA
ENDBRANCH   3  22
TORSDOF 7
ENDMDL
MODEL 9
REMARK VINA RESULT:      -4.3      2.253      4.240
REMARK  7 active torsions:
REMARK  status: ('A' for Active; 'I' for Inactive)
REMARK    1  A    between atoms: C_2  and  C_3 
REMARK    2  A    between atoms: C_3  and  O_6 
REMARK    3  A    between atoms: C_3  and  C_4 
REMARK    4  A    between atoms: C_7  and  O_6 
REMARK    5  A    between atoms: C_9  and  C_10 
REMARK    6  A    between atoms: N_15  and  C_14 
REMARK    7  A    between atoms: N_20  and  C_19 
REMARK       I    between atoms: C_22  and  N_20 
ROOT
ATOM      1  C   LIG d   1      -2.774  92.820 117.873  0.00  0.00     0.161 C 
ATOM      2  C   LIG d   1      -4.163  92.985 117.997  0.00  0.00     0.016 C 
ATOM      3  C   LIG d   1      -5.077  91.906 118.011  0.00  0.00     0.038 C 
ATOM      4  C   LIG d   1      -4.647  90.572 118.053  0.00  0.00     0.028 C 
ATOM      5  C   LIG d   1      -3.277  90.356 117.421  0.00  0.00    -0.047 C 
ATOM      6  C   LIG d   1      -2.278  91.367 118.030  0.00  0.00     0.091 C 
ENDROOT
BRANCH   1   7
ATOM      7  O   LIG d   1      -2.094  93.685 118.805  0.00  0.00    -0.368 OA
BRANCH   7   8
ATOM      8  C   LIG d   1      -2.711  93.830 120.107  0.00  0.00     0.119 C 
BRANCH   8   9
ATOM      9  C   LIG d   1      -2.687  95.328 120.467  0.00  0.00     0.028 C 
ATOM     10  C   LIG d   1      -2.260  96.209 119.281  0.00  0.00     0.006 C 
ENDBRANCH   8   9
BRANCH   8  11
ATOM     11  C   LIG d   1      -1.886  93.138 121.196  0.00  0.00     0.028 C 
ATOM     12  C   LIG d   1      -0.401  93.003 120.822  0.00  0.00     0.006 C 
ENDBRANCH   8  11
ENDBRANCH   7   8
ENDBRANCH   1   7
BRANCH   6  13
ATOM     13  N   LIG d   1      -0.933  91.281 117.406  0.00  0.00    -0.311 N 
ATOM     14  C   LIG d   1       0.067  90.564 117.915  0.00  0.00     0.210 C 
ATOM     15  C   LIG d   1       1.378  90.628 117.125  0.00  0.00     0.109 C 
ATOM     16  O   LIG d   1      -0.016  89.855 118.929  0.00  0.00    -0.276 OA
ATOM     17  H   LIG d   1      -0.787  91.801 116.562  0.00  0.00     0.149 HD
ENDBRANCH   6  13
BRANCH   5  18
ATOM     18  N   LIG d   1      -2.893  88.951 117.657  0.00  0.00     0.381 N 
ATOM     19  H   LIG d   1      -2.771  88.482 116.781  0.00  0.00    -0.090 HD
ATOM     20  H   LIG d   1      -3.632  88.493 118.160  0.00  0.00    -0.090 HD
ATOM     21  H   LIG d   1      -2.048  88.913 118.184  0.00  0.00    -0.090 HD
ENDBRANCH   5  18
BRANCH   3  22
ATOM     22  C   LIG d   1      -6.439  92.158 117.942  0.00  0.00     0.382 C 
ATOM     23  O   LIG d   1      -7.257  91.211 118.027  0.00  0.00    -0.241 OA
ATOM     24  O   LIG d   1      -6.858  93.316 117.752  0.00  0.00    -0.241 OA
ENDBRANCH   3  22
TORSDOF 7
ENDMDL
