MODEL 1
REMARK VINA RESULT:      -5.3      0.000      0.000
REMARK  7 active torsions:
REMARK  status: ('A' for Active; 'I' for Inactive)
REMARK    1  A    between atoms: C_2  and  C_3 
REMARK    2  A    between atoms: C_3  and  O_6 
REMARK    3  A    between atoms: C_3  and  C_4 
REMARK    4  A    between atoms: C_7  and  O_6 
REMARK    5  A    between atoms: C_9  and  C_10 
REMARK    6  A    between atoms: N_15  and  C_14 
REMARK    7  A    between atoms: N_20  and  C_19 
REMARK       I    between atoms: C_22  and  N_20 
ROOT
ATOM      1  C   LIG d   1      -6.229  92.583 118.143  0.00  0.00     0.161 C 
ATOM      2  C   LIG d   1      -6.632  91.349 117.608  0.00  0.00     0.016 C 
ATOM      3  C   LIG d   1      -5.744  90.445 116.980  0.00  0.00     0.038 C 
ATOM      4  C   LIG d   1      -4.356  90.649 116.980  0.00  0.00     0.028 C 
ATOM      5  C   LIG d   1      -3.960  92.119 117.063  0.00  0.00    -0.047 C 
ATOM      6  C   LIG d   1      -4.701  92.773 118.251  0.00  0.00     0.091 C 
ENDROOT
BRANCH   1   7
ATOM      7  O   LIG d   1      -6.851  92.786 119.427  0.00  0.00    -0.368 OA
BRANCH   7   8
ATOM      8  C   LIG d   1      -7.858  93.825 119.491  0.00  0.00     0.119 C 
BRANCH   8   9
ATOM      9  C   LIG d   1      -7.928  94.487 118.101  0.00  0.00     0.028 C 
ATOM     10  C   LIG d   1      -7.621  95.993 118.152  0.00  0.00     0.006 C 
ENDBRANCH   8   9
BRANCH   8  11
ATOM     11  C   LIG d   1      -7.445  94.944 120.452  0.00  0.00     0.028 C 
ATOM     12  C   LIG d   1      -6.779  94.413 121.732  0.00  0.00     0.006 C 
ENDBRANCH   8  11
ENDBRANCH   7   8
ENDBRANCH   1   7
BRANCH   6  13
ATOM     13  N   LIG d   1      -4.435  94.231 118.352  0.00  0.00    -0.311 N 
ATOM     14  C   LIG d   1      -3.853  94.799 119.407  0.00  0.00     0.210 C 
ATOM     15  C   LIG d   1      -3.691  96.320 119.316  0.00  0.00     0.109 C 
ATOM     16  O   LIG d   1      -3.427  94.184 120.396  0.00  0.00    -0.276 OA
ATOM     17  H   LIG d   1      -4.720  94.801 117.580  0.00  0.00     0.149 HD
ENDBRANCH   6  13
BRANCH   5  18
ATOM     18  N   LIG d   1      -2.492  92.178 117.193  0.00  0.00     0.381 N 
ATOM     19  H   LIG d   1      -2.244  92.379 118.142  0.00  0.00    -0.090 HD
ATOM     20  H   LIG d   1      -2.144  92.921 116.613  0.00  0.00    -0.090 HD
ATOM     21  H   LIG d   1      -2.090  91.311 116.914  0.00  0.00    -0.090 HD
ENDBRANCH   5  18
BRANCH   3  22
ATOM     22  C   LIG d   1      -6.248  89.341 116.309  0.00  0.00     0.382 C 
ATOM     23  O   LIG d   1      -7.375  88.882 116.614  0.00  0.00    -0.241 OA
ATOM     24  O   LIG d   1      -5.571  88.772 115.432  0.00  0.00    -0.241 OA
ENDBRANCH   3  22
TORSDOF 7
ENDMDL
MODEL 2
REMARK VINA RESULT:      -5.2      2.237      5.001
REMARK  7 active torsions:
REMARK  status: ('A' for Active; 'I' for Inactive)
REMARK    1  A    between atoms: C_2  and  C_3 
REMARK    2  A    between atoms: C_3  and  O_6 
REMARK    3  A    between atoms: C_3  and  C_4 
REMARK    4  A    between atoms: C_7  and  O_6 
REMARK    5  A    between atoms: C_9  and  C_10 
REMARK    6  A    between atoms: N_15  and  C_14 
REMARK    7  A    between atoms: N_20  and  C_19 
REMARK       I    between atoms: C_22  and  N_20 
ROOT
ATOM      1  C   LIG d   1      -4.999  92.737 117.795  0.00  0.00     0.161 C 
ATOM      2  C   LIG d   1      -6.238  93.380 117.635  0.00  0.00     0.016 C 
ATOM      3  C   LIG d   1      -6.551  94.624 118.229  0.00  0.00     0.038 C 
ATOM      4  C   LIG d   1      -5.587  95.388 118.904  0.00  0.00     0.028 C 
ATOM      5  C   LIG d   1      -4.472  94.548 119.519  0.00  0.00    -0.047 C 
ATOM      6  C   LIG d   1      -3.897  93.607 118.436  0.00  0.00     0.091 C 
ENDROOT
BRANCH   1   7
ATOM      7  O   LIG d   1      -4.552  92.216 116.528  0.00  0.00    -0.368 OA
BRANCH   7   8
ATOM      8  C   LIG d   1      -4.589  90.775 116.383  0.00  0.00     0.119 C 
BRANCH   8   9
ATOM      9  C   LIG d   1      -5.819  90.427 115.521  0.00  0.00     0.028 C 
ATOM     10  C   LIG d   1      -6.849  89.579 116.285  0.00  0.00     0.006 C 
ENDBRANCH   8   9
BRANCH   8  11
ATOM     11  C   LIG d   1      -4.829  90.085 117.729  0.00  0.00     0.028 C 
ATOM     12  C   LIG d   1      -3.626  89.247 118.192  0.00  0.00     0.006 C 
ENDBRANCH   8  11
ENDBRANCH   7   8
ENDBRANCH   1   7
BRANCH   6  13
ATOM     13  N   LIG d   1      -2.858  92.691 118.974  0.00  0.00    -0.311 N 
ATOM     14  C   LIG d   1      -1.666  92.520 118.406  0.00  0.00     0.210 C 
ATOM     15  C   LIG d   1      -0.751  91.514 119.112  0.00  0.00     0.109 C 
ATOM     16  O   LIG d   1      -1.267  93.130 117.402  0.00  0.00    -0.276 OA
ATOM     17  H   LIG d   1      -3.086  92.180 119.804  0.00  0.00     0.149 HD
ENDBRANCH   6  13
BRANCH   5  18
ATOM     18  N   LIG d   1      -3.467  95.477 120.070  0.00  0.00     0.381 N 
ATOM     19  H   LIG d   1      -2.940  95.887 119.325  0.00  0.00    -0.090 HD
ATOM     20  H   LIG d   1      -2.836  94.962 120.657  0.00  0.00    -0.090 HD
ATOM     21  H   LIG d   1      -3.917  96.191 120.600  0.00  0.00    -0.090 HD
ENDBRANCH   5  18
BRANCH   3  22
ATOM     22  C   LIG d   1      -7.854  95.099 118.184  0.00  0.00     0.382 C 
ATOM     23  O   LIG d   1      -8.069  96.324 118.024  0.00  0.00    -0.241 OA
ATOM     24  O   LIG d   1      -8.814  94.323 118.346  0.00  0.00    -0.241 OA
ENDBRANCH   3  22
TORSDOF 7
ENDMDL
MODEL 3
REMARK VINA RESULT:      -4.6      2.039      2.397
REMARK  7 active torsions:
REMARK  status: ('A' for Active; 'I' for Inactive)
REMARK    1  A    between atoms: C_2  and  C_3 
REMARK    2  A    between atoms: C_3  and  O_6 
REMARK    3  A    between atoms: C_3  and  C_4 
REMARK    4  A    between atoms: C_7  and  O_6 
REMARK    5  A    between atoms: C_9  and  C_10 
REMARK    6  A    between atoms: N_15  and  C_14 
REMARK    7  A    between atoms: N_20  and  C_19 
REMARK       I    between atoms: C_22  and  N_20 
ROOT
ATOM      1  C   LIG d   1      -4.340  92.693 117.402  0.00  0.00     0.161 C 
ATOM      2  C   LIG d   1      -5.485  91.985 116.999  0.00  0.00     0.016 C 
ATOM      3  C   LIG d   1      -5.507  90.584 116.811  0.00  0.00     0.038 C 
ATOM      4  C   LIG d   1      -4.419  89.771 117.162  0.00  0.00     0.028 C 
ATOM      5  C   LIG d   1      -3.077  90.492 117.095  0.00  0.00    -0.047 C 
ATOM      6  C   LIG d   1      -3.175  91.810 117.897  0.00  0.00     0.091 C 
ENDROOT
BRANCH   1   7
ATOM      7  O   LIG d   1      -4.694  93.664 118.407  0.00  0.00    -0.368 OA
BRANCH   7   8
ATOM      8  C   LIG d   1      -5.935  93.424 119.115  0.00  0.00     0.119 C 
BRANCH   8   9
ATOM      9  C   LIG d   1      -6.560  94.796 119.432  0.00  0.00     0.028 C 
ATOM     10  C   LIG d   1      -6.993  95.551 118.164  0.00  0.00     0.006 C 
ENDBRANCH   8   9
BRANCH   8  11
ATOM     11  C   LIG d   1      -5.682  92.770 120.477  0.00  0.00     0.028 C 
ATOM     12  C   LIG d   1      -6.966  92.596 121.303  0.00  0.00     0.006 C 
ENDBRANCH   8  11
ENDBRANCH   7   8
ENDBRANCH   1   7
BRANCH   6  13
ATOM     13  N   LIG d   1      -1.931  92.619 117.813  0.00  0.00    -0.311 N 
ATOM     14  C   LIG d   1      -0.942  92.538 118.702  0.00  0.00     0.210 C 
ATOM     15  C   LIG d   1       0.242  93.474 118.439  0.00  0.00     0.109 C 
ATOM     16  O   LIG d   1      -0.920  91.757 119.665  0.00  0.00    -0.276 OA
ATOM     17  H   LIG d   1      -1.852  93.256 117.045  0.00  0.00     0.149 HD
ENDBRANCH   6  13
BRANCH   5  18
ATOM     18  N   LIG d   1      -2.050  89.572 117.617  0.00  0.00     0.381 N 
ATOM     19  H   LIG d   1      -1.249  90.092 117.915  0.00  0.00    -0.090 HD
ATOM     20  H   LIG d   1      -1.766  88.950 116.880  0.00  0.00    -0.090 HD
ATOM     21  H   LIG d   1      -2.417  89.048 118.381  0.00  0.00    -0.090 HD
ENDBRANCH   5  18
BRANCH   3  22
ATOM     22  C   LIG d   1      -6.615  89.987 116.228  0.00  0.00     0.382 C 
ATOM     23  O   LIG d   1      -6.878  88.784 116.470  0.00  0.00    -0.241 OA
ATOM     24  O   LIG d   1      -7.329  90.622 115.430  0.00  0.00    -0.241 OA
ENDBRANCH   3  22
TORSDOF 7
ENDMDL
MODEL 4
REMARK VINA RESULT:      -4.6      2.616      4.743
REMARK  7 active torsions:
REMARK  status: ('A' for Active; 'I' for Inactive)
REMARK    1  A    between atoms: C_2  and  C_3 
REMARK    2  A    between atoms: C_3  and  O_6 
REMARK    3  A    between atoms: C_3  and  C_4 
REMARK    4  A    between atoms: C_7  and  O_6 
REMARK    5  A    between atoms: C_9  and  C_10 
REMARK    6  A    between atoms: N_15  and  C_14 
REMARK    7  A    between atoms: N_20  and  C_19 
REMARK       I    between atoms: C_22  and  N_20 
ROOT
ATOM      1  C   LIG d   1      -3.552  91.309 117.787  0.00  0.00     0.161 C 
ATOM      2  C   LIG d   1      -4.321  90.473 116.960  0.00  0.00     0.016 C 
ATOM      3  C   LIG d   1      -5.554  90.864 116.391  0.00  0.00     0.038 C 
ATOM      4  C   LIG d   1      -6.033  92.179 116.487  0.00  0.00     0.028 C 
ATOM      5  C   LIG d   1      -5.541  92.912 117.731  0.00  0.00    -0.047 C 
ATOM      6  C   LIG d   1      -4.003  92.785 117.813  0.00  0.00     0.091 C 
ENDROOT
BRANCH   1   7
ATOM      7  O   LIG d   1      -2.162  91.217 117.418  0.00  0.00    -0.368 OA
BRANCH   7   8
ATOM      8  C   LIG d   1      -1.358  90.290 118.189  0.00  0.00     0.119 C 
BRANCH   8   9
ATOM      9  C   LIG d   1      -1.873  90.328 119.641  0.00  0.00     0.028 C 
ATOM     10  C   LIG d   1      -0.798  90.802 120.633  0.00  0.00     0.006 C 
ENDBRANCH   8   9
BRANCH   8  11
ATOM     11  C   LIG d   1       0.102  90.749 118.265  0.00  0.00     0.028 C 
ATOM     12  C   LIG d   1       0.404  91.933 117.334  0.00  0.00     0.006 C 
ENDBRANCH   8  11
ENDBRANCH   7   8
ENDBRANCH   1   7
BRANCH   6  13
ATOM     13  N   LIG d   1      -3.448  93.403 119.046  0.00  0.00    -0.311 N 
ATOM     14  C   LIG d   1      -2.407  94.233 119.045  0.00  0.00     0.210 C 
ATOM     15  C   LIG d   1      -1.983  94.742 120.426  0.00  0.00     0.109 C 
ATOM     16  O   LIG d   1      -1.814  94.623 118.027  0.00  0.00    -0.276 OA
ATOM     17  H   LIG d   1      -3.889  93.166 119.913  0.00  0.00     0.149 HD
ENDBRANCH   6  13
BRANCH   5  18
ATOM     18  N   LIG d   1      -6.001  94.310 117.635  0.00  0.00     0.381 N 
ATOM     19  H   LIG d   1      -6.919  94.338 117.239  0.00  0.00    -0.090 HD
ATOM     20  H   LIG d   1      -5.380  94.816 117.028  0.00  0.00    -0.090 HD
ATOM     21  H   LIG d   1      -6.009  94.730 118.538  0.00  0.00    -0.090 HD
ENDBRANCH   5  18
BRANCH   3  22
ATOM     22  C   LIG d   1      -6.343  89.921 115.748  0.00  0.00     0.382 C 
ATOM     23  O   LIG d   1      -5.862  88.804 115.443  0.00  0.00    -0.241 OA
ATOM     24  O   LIG d   1      -7.517  90.191 115.430  0.00  0.00    -0.241 OA
ENDBRANCH   3  22
TORSDOF 7
ENDMDL
MODEL 5
REMARK VINA RESULT:      -4.6      2.983      5.393
REMARK  7 active torsions:
REMARK  status: ('A' for Active; 'I' for Inactive)
REMARK    1  A    between atoms: C_2  and  C_3 
REMARK    2  A    between atoms: C_3  and  O_6 
REMARK    3  A    between atoms: C_3  and  C_4 
REMARK    4  A    between atoms: C_7  and  O_6 
REMARK    5  A    between atoms: C_9  and  C_10 
REMARK    6  A    between atoms: N_15  and  C_14 
REMARK    7  A    between atoms: N_20  and  C_19 
REMARK       I    between atoms: C_22  and  N_20 
ROOT
ATOM      1  C   LIG d   1      -2.903  92.811 117.745  0.00  0.00     0.161 C 
ATOM      2  C   LIG d   1      -4.230  93.209 117.974  0.00  0.00     0.016 C 
ATOM      3  C   LIG d   1      -5.326  92.315 117.952  0.00  0.00     0.038 C 
ATOM      4  C   LIG d   1      -5.148  90.927 117.849  0.00  0.00     0.028 C 
ATOM      5  C   LIG d   1      -3.872  90.533 117.112  0.00  0.00    -0.047 C 
ATOM      6  C   LIG d   1      -2.677  91.285 117.741  0.00  0.00     0.091 C 
ENDROOT
BRANCH   1   7
ATOM      7  O   LIG d   1      -2.031  93.444 118.703  0.00  0.00    -0.368 OA
BRANCH   7   8
ATOM      8  C   LIG d   1      -1.077  94.394 118.166  0.00  0.00     0.119 C 
BRANCH   8   9
ATOM      9  C   LIG d   1       0.102  94.474 119.154  0.00  0.00     0.028 C 
ATOM     10  C   LIG d   1       1.090  93.308 118.985  0.00  0.00     0.006 C 
ENDBRANCH   8   9
BRANCH   8  11
ATOM     11  C   LIG d   1      -1.665  95.807 118.120  0.00  0.00     0.028 C 
ATOM     12  C   LIG d   1      -0.600  96.887 117.870  0.00  0.00     0.006 C 
ENDBRANCH   8  11
ENDBRANCH   7   8
ENDBRANCH   1   7
BRANCH   6  13
ATOM     13  N   LIG d   1      -1.401  91.020 117.026  0.00  0.00    -0.311 N 
ATOM     14  C   LIG d   1      -0.392  90.333 117.556  0.00  0.00     0.210 C 
ATOM     15  C   LIG d   1       0.840  90.193 116.656  0.00  0.00     0.109 C 
ATOM     16  O   LIG d   1      -0.411  89.797 118.675  0.00  0.00    -0.276 OA
ATOM     17  H   LIG d   1      -1.312  91.392 116.100  0.00  0.00     0.149 HD
ENDBRANCH   6  13
BRANCH   5  18
ATOM     18  N   LIG d   1      -3.743  89.066 117.198  0.00  0.00     0.381 N 
ATOM     19  H   LIG d   1      -3.840  88.664 116.288  0.00  0.00    -0.090 HD
ATOM     20  H   LIG d   1      -4.479  88.709 117.781  0.00  0.00    -0.090 HD
ATOM     21  H   LIG d   1      -2.857  88.824 117.584  0.00  0.00    -0.090 HD
ENDBRANCH   5  18
BRANCH   3  22
ATOM     22  C   LIG d   1      -6.619  92.812 117.994  0.00  0.00     0.382 C 
ATOM     23  O   LIG d   1      -7.354  92.565 118.981  0.00  0.00    -0.241 OA
ATOM     24  O   LIG d   1      -7.076  93.467 117.039  0.00  0.00    -0.241 OA
ENDBRANCH   3  22
TORSDOF 7
ENDMDL
MODEL 6
REMARK VINA RESULT:      -4.6      2.499      5.038
REMARK  7 active torsions:
REMARK  status: ('A' for Active; 'I' for Inactive)
REMARK    1  A    between atoms: C_2  and  C_3 
REMARK    2  A    between atoms: C_3  and  O_6 
REMARK    3  A    between atoms: C_3  and  C_4 
REMARK    4  A    between atoms: C_7  and  O_6 
REMARK    5  A    between atoms: C_9  and  C_10 
REMARK    6  A    between atoms: N_15  and  C_14 
REMARK    7  A    between atoms: N_20  and  C_19 
REMARK       I    between atoms: C_22  and  N_20 
ROOT
ATOM      1  C   LIG d   1      -3.764  93.241 118.488  0.00  0.00     0.161 C 
ATOM      2  C   LIG d   1      -4.929  94.014 118.628  0.00  0.00     0.016 C 
ATOM      3  C   LIG d   1      -6.123  93.757 117.916  0.00  0.00     0.038 C 
ATOM      4  C   LIG d   1      -6.282  92.611 117.123  0.00  0.00     0.028 C 
ATOM      5  C   LIG d   1      -4.969  92.079 116.557  0.00  0.00    -0.047 C 
ATOM      6  C   LIG d   1      -3.953  91.921 117.711  0.00  0.00     0.091 C 
ENDROOT
BRANCH   1   7
ATOM      7  O   LIG d   1      -3.191  92.982 119.785  0.00  0.00    -0.368 OA
BRANCH   7   8
ATOM      8  C   LIG d   1      -1.970  93.698 120.096  0.00  0.00     0.119 C 
BRANCH   8   9
ATOM      9  C   LIG d   1      -2.346  94.876 121.015  0.00  0.00     0.028 C 
ATOM     10  C   LIG d   1      -2.161  96.239 120.327  0.00  0.00     0.006 C 
ENDBRANCH   8   9
BRANCH   8  11
ATOM     11  C   LIG d   1      -1.364  94.337 118.844  0.00  0.00     0.028 C 
ATOM     12  C   LIG d   1       0.006  93.745 118.476  0.00  0.00     0.006 C 
ENDBRANCH   8  11
ENDBRANCH   7   8
ENDBRANCH   1   7
BRANCH   6  13
ATOM     13  N   LIG d   1      -2.615  91.485 117.233  0.00  0.00    -0.311 N 
ATOM     14  C   LIG d   1      -1.939  90.471 117.770  0.00  0.00     0.210 C 
ATOM     15  C   LIG d   1      -0.569  90.201 117.139  0.00  0.00     0.109 C 
ATOM     16  O   LIG d   1      -2.357  89.750 118.688  0.00  0.00    -0.276 OA
ATOM     17  H   LIG d   1      -2.214  91.996 116.471  0.00  0.00     0.149 HD
ENDBRANCH   6  13
BRANCH   5  18
ATOM     18  N   LIG d   1      -5.263  90.809 115.868  0.00  0.00     0.381 N 
ATOM     19  H   LIG d   1      -5.939  90.963 115.147  0.00  0.00    -0.090 HD
ATOM     20  H   LIG d   1      -5.651  90.161 116.531  0.00  0.00    -0.090 HD
ATOM     21  H   LIG d   1      -4.428  90.433 115.475  0.00  0.00    -0.090 HD
ENDBRANCH   5  18
BRANCH   3  22
ATOM     22  C   LIG d   1      -7.162  94.674 117.962  0.00  0.00     0.382 C 
ATOM     23  O   LIG d   1      -8.342  94.296 117.767  0.00  0.00    -0.241 OA
ATOM     24  O   LIG d   1      -6.929  95.883 118.153  0.00  0.00    -0.241 OA
ENDBRANCH   3  22
TORSDOF 7
ENDMDL
MODEL 7
REMARK VINA RESULT:      -4.4      2.702      4.535
REMARK  7 active torsions:
REMARK  status: ('A' for Active; 'I' for Inactive)
REMARK    1  A    between atoms: C_2  and  C_3 
REMARK    2  A    between atoms: C_3  and  O_6 
REMARK    3  A    between atoms: C_3  and  C_4 
REMARK    4  A    between atoms: C_7  and  O_6 
REMARK    5  A    between atoms: C_9  and  C_10 
REMARK    6  A    between atoms: N_15  and  C_14 
REMARK    7  A    between atoms: N_20  and  C_19 
REMARK       I    between atoms: C_22  and  N_20 
ROOT
ATOM      1  C   LIG d   1      -2.935  92.751 117.397  0.00  0.00     0.161 C 
ATOM      2  C   LIG d   1      -4.336  92.677 117.456  0.00  0.00     0.016 C 
ATOM      3  C   LIG d   1      -5.046  91.464 117.607  0.00  0.00     0.038 C 
ATOM      4  C   LIG d   1      -4.392  90.249 117.864  0.00  0.00     0.028 C 
ATOM      5  C   LIG d   1      -2.972  90.197 117.311  0.00  0.00    -0.047 C 
ATOM      6  C   LIG d   1      -2.202  91.450 117.787  0.00  0.00     0.091 C 
ENDROOT
BRANCH   1   7
ATOM      7  O   LIG d   1      -2.469  93.850 118.206  0.00  0.00    -0.368 OA
BRANCH   7   8
ATOM      8  C   LIG d   1      -2.307  93.577 119.619  0.00  0.00     0.119 C 
BRANCH   8   9
ATOM      9  C   LIG d   1      -3.257  94.519 120.384  0.00  0.00     0.028 C 
ATOM     10  C   LIG d   1      -3.641  95.760 119.562  0.00  0.00     0.006 C 
ENDBRANCH   8   9
BRANCH   8  11
ATOM     11  C   LIG d   1      -0.900  93.943 120.100  0.00  0.00     0.028 C 
ATOM     12  C   LIG d   1      -0.058  94.627 119.011  0.00  0.00     0.006 C 
ENDBRANCH   8  11
ENDBRANCH   7   8
ENDBRANCH   1   7
BRANCH   6  13
ATOM     13  N   LIG d   1      -0.829  91.521 117.221  0.00  0.00    -0.311 N 
ATOM     14  C   LIG d   1       0.253  91.091 117.868  0.00  0.00     0.210 C 
ATOM     15  C   LIG d   1       1.573  91.275 117.113  0.00  0.00     0.109 C 
ATOM     16  O   LIG d   1       0.242  90.546 118.982  0.00  0.00    -0.276 OA
ATOM     17  H   LIG d   1      -0.732  91.920 116.308  0.00  0.00     0.149 HD
ENDBRANCH   6  13
BRANCH   5  18
ATOM     18  N   LIG d   1      -2.362  88.935 117.768  0.00  0.00     0.381 N 
ATOM     19  H   LIG d   1      -1.459  89.117 118.159  0.00  0.00    -0.090 HD
ATOM     20  H   LIG d   1      -2.245  88.325 116.978  0.00  0.00    -0.090 HD
ATOM     21  H   LIG d   1      -2.945  88.501 118.449  0.00  0.00    -0.090 HD
ENDBRANCH   5  18
BRANCH   3  22
ATOM     22  C   LIG d   1      -6.425  91.451 117.463  0.00  0.00     0.382 C 
ATOM     23  O   LIG d   1      -6.970  90.595 116.726  0.00  0.00    -0.241 OA
ATOM     24  O   LIG d   1      -7.127  92.314 118.024  0.00  0.00    -0.241 OA
ENDBRANCH   3  22
TORSDOF 7
ENDMDL
MODEL 8
REMARK VINA RESULT:      -4.3      2.469      4.052
REMARK  7 active torsions:
REMARK  status: ('A' for Active; 'I' for Inactive)
REMARK    1  A    between atoms: C_2  and  C_3 
REMARK    2  A    between atoms: C_3  and  O_6 
REMARK    3  A    between atoms: C_3  and  C_4 
REMARK    4  A    between atoms: C_7  and  O_6 
REMARK    5  A    between atoms: C_9  and  C_10 
REMARK    6  A    between atoms: N_15  and  C_14 
REMARK    7  A    between atoms: N_20  and  C_19 
REMARK       I    between atoms: C_22  and  N_20 
ROOT
ATOM      1  C   LIG d   1      -4.433  91.493 119.733  0.00  0.00     0.161 C 
ATOM      2  C   LIG d   1      -3.410  90.616 119.336  0.00  0.00     0.016 C 
ATOM      3  C   LIG d   1      -3.535  89.712 118.256  0.00  0.00     0.038 C 
ATOM      4  C   LIG d   1      -4.645  89.731 117.399  0.00  0.00     0.028 C 
ATOM      5  C   LIG d   1      -5.916  90.250 118.064  0.00  0.00    -0.047 C 
ATOM      6  C   LIG d   1      -5.610  91.605 118.741  0.00  0.00     0.091 C 
ENDROOT
BRANCH   1   7
ATOM      7  O   LIG d   1      -3.882  92.797 120.005  0.00  0.00    -0.368 OA
BRANCH   7   8
ATOM      8  C   LIG d   1      -3.893  93.737 118.903  0.00  0.00     0.119 C 
BRANCH   8   9
ATOM      9  C   LIG d   1      -2.439  93.908 118.425  0.00  0.00     0.028 C 
ATOM     10  C   LIG d   1      -1.481  94.262 119.575  0.00  0.00     0.006 C 
ENDBRANCH   8   9
BRANCH   8  11
ATOM     11  C   LIG d   1      -4.336  95.129 119.362  0.00  0.00     0.028 C 
ATOM     12  C   LIG d   1      -5.042  95.110 120.727  0.00  0.00     0.006 C 
ENDBRANCH   8  11
ENDBRANCH   7   8
ENDBRANCH   1   7
BRANCH   6  13
ATOM     13  N   LIG d   1      -6.778  92.143 119.487  0.00  0.00    -0.311 N 
ATOM     14  C   LIG d   1      -7.606  93.059 118.990  0.00  0.00     0.210 C 
ATOM     15  C   LIG d   1      -8.734  93.490 119.933  0.00  0.00     0.109 C 
ATOM     16  O   LIG d   1      -7.534  93.532 117.846  0.00  0.00    -0.276 OA
ATOM     17  H   LIG d   1      -6.929  91.790 120.412  0.00  0.00     0.149 HD
ENDBRANCH   6  13
BRANCH   5  18
ATOM     18  N   LIG d   1      -6.957  90.345 117.023  0.00  0.00     0.381 N 
ATOM     19  H   LIG d   1      -6.952  91.261 116.623  0.00  0.00    -0.090 HD
ATOM     20  H   LIG d   1      -7.855  90.190 117.447  0.00  0.00    -0.090 HD
ATOM     21  H   LIG d   1      -6.794  89.664 116.315  0.00  0.00    -0.090 HD
ENDBRANCH   5  18
BRANCH   3  22
ATOM     22  C   LIG d   1      -2.559  88.750 118.049  0.00  0.00     0.382 C 
ATOM     23  O   LIG d   1      -2.887  87.551 117.878  0.00  0.00    -0.241 OA
ATOM     24  O   LIG d   1      -1.352  89.058 118.075  0.00  0.00    -0.241 OA
ENDBRANCH   3  22
TORSDOF 7
ENDMDL
MODEL 9
REMARK VINA RESULT:      -4.3      3.691      5.925
REMARK  7 active torsions:
REMARK  status: ('A' for Active; 'I' for Inactive)
REMARK    1  A    between atoms: C_2  and  C_3 
REMARK    2  A    between atoms: C_3  and  O_6 
REMARK    3  A    between atoms: C_3  and  C_4 
REMARK    4  A    between atoms: C_7  and  O_6 
REMARK    5  A    between atoms: C_9  and  C_10 
REMARK    6  A    between atoms: N_15  and  C_14 
REMARK    7  A    between atoms: N_20  and  C_19 
REMARK       I    between atoms: C_22  and  N_20 
ROOT
ATOM      1  C   LIG d   1      -2.506  90.522 119.150  0.00  0.00     0.161 C 
ATOM      2  C   LIG d   1      -3.815  90.272 118.704  0.00  0.00     0.016 C 
ATOM      3  C   LIG d   1      -4.479  91.078 117.750  0.00  0.00     0.038 C 
ATOM      4  C   LIG d   1      -3.820  92.107 117.062  0.00  0.00     0.028 C 
ATOM      5  C   LIG d   1      -2.660  92.713 117.844  0.00  0.00    -0.047 C 
ATOM      6  C   LIG d   1      -1.733  91.575 118.329  0.00  0.00     0.091 C 
ENDROOT
BRANCH   1   7
ATOM      7  O   LIG d   1      -1.765  89.288 119.207  0.00  0.00    -0.368 OA
BRANCH   7   8
ATOM      8  C   LIG d   1      -1.547  88.616 117.942  0.00  0.00     0.119 C 
BRANCH   8   9
ATOM      9  C   LIG d   1      -2.019  87.159 118.103  0.00  0.00     0.028 C 
ATOM     10  C   LIG d   1      -2.448  86.837 119.545  0.00  0.00     0.006 C 
ENDBRANCH   8   9
BRANCH   8  11
ATOM     11  C   LIG d   1      -0.054  88.524 117.610  0.00  0.00     0.028 C 
ATOM     12  C   LIG d   1       0.839  88.594 118.858  0.00  0.00     0.006 C 
ENDBRANCH   8  11
ENDBRANCH   7   8
ENDBRANCH   1   7
BRANCH   6  13
ATOM     13  N   LIG d   1      -0.617  92.074 119.174  0.00  0.00    -0.311 N 
ATOM     14  C   LIG d   1       0.611  92.297 118.710  0.00  0.00     0.210 C 
ATOM     15  C   LIG d   1       1.617  92.791 119.754  0.00  0.00     0.109 C 
ATOM     16  O   LIG d   1       0.955  92.163 117.526  0.00  0.00    -0.276 OA
ATOM     17  H   LIG d   1      -0.816  92.239 120.141  0.00  0.00     0.149 HD
ENDBRANCH   6  13
BRANCH   5  18
ATOM     18  N   LIG d   1      -1.979  93.675 116.957  0.00  0.00     0.381 N 
ATOM     19  H   LIG d   1      -2.645  94.102 116.345  0.00  0.00    -0.090 HD
ATOM     20  H   LIG d   1      -1.307  93.181 116.397  0.00  0.00    -0.090 HD
ATOM     21  H   LIG d   1      -1.520  94.374 117.500  0.00  0.00    -0.090 HD
ENDBRANCH   5  18
BRANCH   3  22
ATOM     22  C   LIG d   1      -5.829  90.881 117.506  0.00  0.00     0.382 C 
ATOM     23  O   LIG d   1      -6.289  89.716 117.426  0.00  0.00    -0.241 OA
ATOM     24  O   LIG d   1      -6.586  91.853 117.321  0.00  0.00    -0.241 OA
ENDBRANCH   3  22
TORSDOF 7
ENDMDL
