MODEL 1
REMARK VINA RESULT:      -5.2      0.000      0.000
REMARK  7 active torsions:
REMARK  status: ('A' for Active; 'I' for Inactive)
REMARK    1  A    between atoms: C_2  and  C_3 
REMARK    2  A    between atoms: C_3  and  O_6 
REMARK    3  A    between atoms: C_3  and  C_4 
REMARK    4  A    between atoms: C_7  and  O_6 
REMARK    5  A    between atoms: C_9  and  C_10 
REMARK    6  A    between atoms: N_15  and  C_14 
REMARK    7  A    between atoms: N_20  and  C_19 
REMARK       I    between atoms: C_22  and  N_20 
ROOT
ATOM      1  C   LIG d   1      -5.376  92.897 118.796  0.00  0.00     0.161 C 
ATOM      2  C   LIG d   1      -6.230  92.160 117.959  0.00  0.00     0.016 C 
ATOM      3  C   LIG d   1      -5.774  91.171 117.058  0.00  0.00     0.038 C 
ATOM      4  C   LIG d   1      -4.438  90.742 117.042  0.00  0.00     0.028 C 
ATOM      5  C   LIG d   1      -3.454  91.809 117.511  0.00  0.00    -0.047 C 
ATOM      6  C   LIG d   1      -3.929  92.366 118.872  0.00  0.00     0.091 C 
ENDROOT
BRANCH   1   7
ATOM      7  O   LIG d   1      -5.946  92.990 120.116  0.00  0.00    -0.368 OA
BRANCH   7   8
ATOM      8  C   LIG d   1      -6.376  94.309 120.534  0.00  0.00     0.119 C 
BRANCH   8   9
ATOM      9  C   LIG d   1      -7.916  94.293 120.604  0.00  0.00     0.028 C 
ATOM     10  C   LIG d   1      -8.568  94.797 119.305  0.00  0.00     0.006 C 
ENDBRANCH   8   9
BRANCH   8  11
ATOM     11  C   LIG d   1      -6.029  95.367 119.482  0.00  0.00     0.028 C 
ATOM     12  C   LIG d   1      -5.099  96.463 120.025  0.00  0.00     0.006 C 
ENDBRANCH   8  11
ENDBRANCH   7   8
ENDBRANCH   1   7
BRANCH   6  13
ATOM     13  N   LIG d   1      -3.069  93.474 119.362  0.00  0.00    -0.311 N 
ATOM     14  C   LIG d   1      -2.620  93.556 120.614  0.00  0.00     0.210 C 
ATOM     15  C   LIG d   1      -1.764  94.790 120.915  0.00  0.00     0.109 C 
ATOM     16  O   LIG d   1      -2.824  92.707 121.494  0.00  0.00    -0.276 OA
ATOM     17  H   LIG d   1      -2.829  94.191 118.705  0.00  0.00     0.149 HD
ENDBRANCH   6  13
BRANCH   5  18
ATOM     18  N   LIG d   1      -2.119  91.186 117.575  0.00  0.00     0.381 N 
ATOM     19  H   LIG d   1      -2.211  90.191 117.630  0.00  0.00    -0.090 HD
ATOM     20  H   LIG d   1      -1.651  91.505 118.405  0.00  0.00    -0.090 HD
ATOM     21  H   LIG d   1      -1.588  91.433 116.769  0.00  0.00    -0.090 HD
ENDBRANCH   5  18
BRANCH   3  22
ATOM     22  C   LIG d   1      -6.651  90.627 116.133  0.00  0.00     0.382 C 
ATOM     23  O   LIG d   1      -6.501  89.442 115.747  0.00  0.00    -0.241 OA
ATOM     24  O   LIG d   1      -7.565  91.319 115.645  0.00  0.00    -0.241 OA
ENDBRANCH   3  22
TORSDOF 7
ENDMDL
MODEL 2
REMARK VINA RESULT:      -5.0      2.314      4.653
REMARK  7 active torsions:
REMARK  status: ('A' for Active; 'I' for Inactive)
REMARK    1  A    between atoms: C_2  and  C_3 
REMARK    2  A    between atoms: C_3  and  O_6 
REMARK    3  A    between atoms: C_3  and  C_4 
REMARK    4  A    between atoms: C_7  and  O_6 
REMARK    5  A    between atoms: C_9  and  C_10 
REMARK    6  A    between atoms: N_15  and  C_14 
REMARK    7  A    between atoms: N_20  and  C_19 
REMARK       I    between atoms: C_22  and  N_20 
ROOT
ATOM      1  C   LIG d   1      -3.292  91.536 118.215  0.00  0.00     0.161 C 
ATOM      2  C   LIG d   1      -4.101  91.076 117.163  0.00  0.00     0.016 C 
ATOM      3  C   LIG d   1      -5.493  91.312 117.091  0.00  0.00     0.038 C 
ATOM      4  C   LIG d   1      -6.149  92.161 117.996  0.00  0.00     0.028 C 
ATOM      5  C   LIG d   1      -5.467  92.236 119.358  0.00  0.00    -0.047 C 
ATOM      6  C   LIG d   1      -3.969  92.557 119.153  0.00  0.00     0.091 C 
ENDROOT
BRANCH   1   7
ATOM      7  O   LIG d   1      -2.065  92.078 117.686  0.00  0.00    -0.368 OA
BRANCH   7   8
ATOM      8  C   LIG d   1      -0.846  91.410 118.093  0.00  0.00     0.119 C 
BRANCH   8   9
ATOM      9  C   LIG d   1       0.062  92.466 118.753  0.00  0.00     0.028 C 
ATOM     10  C   LIG d   1       0.449  92.090 120.193  0.00  0.00     0.006 C 
ENDBRANCH   8   9
BRANCH   8  11
ATOM     11  C   LIG d   1      -0.060  90.899 116.883  0.00  0.00     0.028 C 
ATOM     12  C   LIG d   1       1.387  91.416 116.850  0.00  0.00     0.006 C 
ENDBRANCH   8  11
ENDBRANCH   7   8
ENDBRANCH   1   7
BRANCH   6  13
ATOM     13  N   LIG d   1      -3.211  92.566 120.431  0.00  0.00    -0.311 N 
ATOM     14  C   LIG d   1      -2.963  93.673 121.129  0.00  0.00     0.210 C 
ATOM     15  C   LIG d   1      -2.147  93.461 122.408  0.00  0.00     0.109 C 
ATOM     16  O   LIG d   1      -3.369  94.805 120.827  0.00  0.00    -0.276 OA
ATOM     17  H   LIG d   1      -2.871  91.685 120.766  0.00  0.00     0.149 HD
ENDBRANCH   6  13
BRANCH   5  18
ATOM     18  N   LIG d   1      -6.174  93.257 120.154  0.00  0.00     0.381 N 
ATOM     19  H   LIG d   1      -5.523  93.944 120.478  0.00  0.00    -0.090 HD
ATOM     20  H   LIG d   1      -6.590  92.815 120.955  0.00  0.00    -0.090 HD
ATOM     21  H   LIG d   1      -6.880  93.692 119.601  0.00  0.00    -0.090 HD
ENDBRANCH   5  18
BRANCH   3  22
ATOM     22  C   LIG d   1      -6.251  90.664 116.128  0.00  0.00     0.382 C 
ATOM     23  O   LIG d   1      -5.819  89.617 115.589  0.00  0.00    -0.241 OA
ATOM     24  O   LIG d   1      -7.342  91.138 115.759  0.00  0.00    -0.241 OA
ENDBRANCH   3  22
TORSDOF 7
ENDMDL
MODEL 3
REMARK VINA RESULT:      -4.7      2.108      4.245
REMARK  7 active torsions:
REMARK  status: ('A' for Active; 'I' for Inactive)
REMARK    1  A    between atoms: C_2  and  C_3 
REMARK    2  A    between atoms: C_3  and  O_6 
REMARK    3  A    between atoms: C_3  and  C_4 
REMARK    4  A    between atoms: C_7  and  O_6 
REMARK    5  A    between atoms: C_9  and  C_10 
REMARK    6  A    between atoms: N_15  and  C_14 
REMARK    7  A    between atoms: N_20  and  C_19 
REMARK       I    between atoms: C_22  and  N_20 
ROOT
ATOM      1  C   LIG d   1      -4.259  92.021 118.889  0.00  0.00     0.161 C 
ATOM      2  C   LIG d   1      -4.321  91.161 117.780  0.00  0.00     0.016 C 
ATOM      3  C   LIG d   1      -5.459  91.044 116.950  0.00  0.00     0.038 C 
ATOM      4  C   LIG d   1      -6.566  91.895 117.083  0.00  0.00     0.028 C 
ATOM      5  C   LIG d   1      -6.751  92.430 118.500  0.00  0.00    -0.047 C 
ATOM      6  C   LIG d   1      -5.415  93.038 118.985  0.00  0.00     0.091 C 
ENDROOT
BRANCH   1   7
ATOM      7  O   LIG d   1      -2.989  92.703 118.909  0.00  0.00    -0.368 OA
BRANCH   7   8
ATOM      8  C   LIG d   1      -2.085  92.338 119.981  0.00  0.00     0.119 C 
BRANCH   8   9
ATOM      9  C   LIG d   1      -0.843  91.690 119.338  0.00  0.00     0.028 C 
ATOM     10  C   LIG d   1      -0.527  92.275 117.952  0.00  0.00     0.006 C 
ENDBRANCH   8   9
BRANCH   8  11
ATOM     11  C   LIG d   1      -2.692  91.252 120.875  0.00  0.00     0.028 C 
ATOM     12  C   LIG d   1      -2.898  91.721 122.324  0.00  0.00     0.006 C 
ENDBRANCH   8  11
ENDBRANCH   7   8
ENDBRANCH   1   7
BRANCH   6  13
ATOM     13  N   LIG d   1      -5.485  93.509 120.393  0.00  0.00    -0.311 N 
ATOM     14  C   LIG d   1      -5.765  94.766 120.732  0.00  0.00     0.210 C 
ATOM     15  C   LIG d   1      -5.767  95.044 122.239  0.00  0.00     0.109 C 
ATOM     16  O   LIG d   1      -6.043  95.670 119.930  0.00  0.00    -0.276 OA
ATOM     17  H   LIG d   1      -5.303  92.834 121.109  0.00  0.00     0.149 HD
ENDBRANCH   6  13
BRANCH   5  18
ATOM     18  N   LIG d   1      -7.854  93.409 118.466  0.00  0.00     0.381 N 
ATOM     19  H   LIG d   1      -7.976  93.749 117.533  0.00  0.00    -0.090 HD
ATOM     20  H   LIG d   1      -7.616  94.186 119.057  0.00  0.00    -0.090 HD
ATOM     21  H   LIG d   1      -8.696  92.984 118.785  0.00  0.00    -0.090 HD
ENDBRANCH   5  18
BRANCH   3  22
ATOM     22  C   LIG d   1      -5.513  90.038 115.996  0.00  0.00     0.382 C 
ATOM     23  O   LIG d   1      -4.453  89.599 115.488  0.00  0.00    -0.241 OA
ATOM     24  O   LIG d   1      -6.610  89.596 115.606  0.00  0.00    -0.241 OA
ENDBRANCH   3  22
TORSDOF 7
ENDMDL
MODEL 4
REMARK VINA RESULT:      -4.6      2.453      5.981
REMARK  7 active torsions:
REMARK  status: ('A' for Active; 'I' for Inactive)
REMARK    1  A    between atoms: C_2  and  C_3 
REMARK    2  A    between atoms: C_3  and  O_6 
REMARK    3  A    between atoms: C_3  and  C_4 
REMARK    4  A    between atoms: C_7  and  O_6 
REMARK    5  A    between atoms: C_9  and  C_10 
REMARK    6  A    between atoms: N_15  and  C_14 
REMARK    7  A    between atoms: N_20  and  C_19 
REMARK       I    between atoms: C_22  and  N_20 
ROOT
ATOM      1  C   LIG d   1      -4.416  93.212 119.638  0.00  0.00     0.161 C 
ATOM      2  C   LIG d   1      -4.605  94.040 120.757  0.00  0.00     0.016 C 
ATOM      3  C   LIG d   1      -5.854  94.602 121.107  0.00  0.00     0.038 C 
ATOM      4  C   LIG d   1      -7.038  94.250 120.442  0.00  0.00     0.028 C 
ATOM      5  C   LIG d   1      -6.816  93.814 118.998  0.00  0.00    -0.047 C 
ATOM      6  C   LIG d   1      -5.718  92.727 118.965  0.00  0.00     0.091 C 
ENDROOT
BRANCH   1   7
ATOM      7  O   LIG d   1      -3.588  92.088 119.995  0.00  0.00    -0.368 OA
BRANCH   7   8
ATOM      8  C   LIG d   1      -2.207  92.389 120.314  0.00  0.00     0.119 C 
BRANCH   8   9
ATOM      9  C   LIG d   1      -1.326  91.699 119.255  0.00  0.00     0.028 C 
ATOM     10  C   LIG d   1      -1.214  92.520 117.959  0.00  0.00     0.006 C 
ENDBRANCH   8   9
BRANCH   8  11
ATOM     11  C   LIG d   1      -1.795  91.768 121.652  0.00  0.00     0.028 C 
ATOM     12  C   LIG d   1      -2.835  90.772 122.191  0.00  0.00     0.006 C 
ENDBRANCH   8  11
ENDBRANCH   7   8
ENDBRANCH   1   7
BRANCH   6  13
ATOM     13  N   LIG d   1      -5.378  92.305 117.581  0.00  0.00    -0.311 N 
ATOM     14  C   LIG d   1      -5.993  91.308 116.947  0.00  0.00     0.210 C 
ATOM     15  C   LIG d   1      -5.475  91.024 115.533  0.00  0.00     0.109 C 
ATOM     16  O   LIG d   1      -6.938  90.652 117.409  0.00  0.00    -0.276 OA
ATOM     17  H   LIG d   1      -4.643  92.805 117.119  0.00  0.00     0.149 HD
ENDBRANCH   6  13
BRANCH   5  18
ATOM     18  N   LIG d   1      -8.110  93.345 118.469  0.00  0.00     0.381 N 
ATOM     19  H   LIG d   1      -7.983  92.483 117.977  0.00  0.00    -0.090 HD
ATOM     20  H   LIG d   1      -8.465  94.028 117.823  0.00  0.00    -0.090 HD
ATOM     21  H   LIG d   1      -8.757  93.217 119.216  0.00  0.00    -0.090 HD
ENDBRANCH   5  18
BRANCH   3  22
ATOM     22  C   LIG d   1      -5.921  95.559 122.108  0.00  0.00     0.382 C 
ATOM     23  O   LIG d   1      -6.984  95.716 122.755  0.00  0.00    -0.241 OA
ATOM     24  O   LIG d   1      -4.945  96.297 122.342  0.00  0.00    -0.241 OA
ENDBRANCH   3  22
TORSDOF 7
ENDMDL
MODEL 5
REMARK VINA RESULT:      -4.6      2.043      4.149
REMARK  7 active torsions:
REMARK  status: ('A' for Active; 'I' for Inactive)
REMARK    1  A    between atoms: C_2  and  C_3 
REMARK    2  A    between atoms: C_3  and  O_6 
REMARK    3  A    between atoms: C_3  and  C_4 
REMARK    4  A    between atoms: C_7  and  O_6 
REMARK    5  A    between atoms: C_9  and  C_10 
REMARK    6  A    between atoms: N_15  and  C_14 
REMARK    7  A    between atoms: N_20  and  C_19 
REMARK       I    between atoms: C_22  and  N_20 
ROOT
ATOM      1  C   LIG d   1      -4.277  91.849 118.920  0.00  0.00     0.161 C 
ATOM      2  C   LIG d   1      -4.346  91.029 117.781  0.00  0.00     0.016 C 
ATOM      3  C   LIG d   1      -5.463  90.993 116.915  0.00  0.00     0.038 C 
ATOM      4  C   LIG d   1      -6.533  91.891 117.047  0.00  0.00     0.028 C 
ATOM      5  C   LIG d   1      -6.735  92.389 118.474  0.00  0.00    -0.047 C 
ATOM      6  C   LIG d   1      -5.387  92.917 119.017  0.00  0.00     0.091 C 
ENDROOT
BRANCH   1   7
ATOM      7  O   LIG d   1      -2.978  92.469 118.998  0.00  0.00    -0.368 OA
BRANCH   7   8
ATOM      8  C   LIG d   1      -2.056  91.897 119.958  0.00  0.00     0.119 C 
BRANCH   8   9
ATOM      9  C   LIG d   1      -2.084  92.788 121.215  0.00  0.00     0.028 C 
ATOM     10  C   LIG d   1      -2.574  92.031 122.460  0.00  0.00     0.006 C 
ENDBRANCH   8   9
BRANCH   8  11
ATOM     11  C   LIG d   1      -0.612  91.959 119.449  0.00  0.00     0.028 C 
ATOM     12  C   LIG d   1      -0.524  92.237 117.940  0.00  0.00     0.006 C 
ENDBRANCH   8  11
ENDBRANCH   7   8
ENDBRANCH   1   7
BRANCH   6  13
ATOM     13  N   LIG d   1      -5.477  93.345 120.437  0.00  0.00    -0.311 N 
ATOM     14  C   LIG d   1      -5.707  94.602 120.811  0.00  0.00     0.210 C 
ATOM     15  C   LIG d   1      -5.741  94.831 122.325  0.00  0.00     0.109 C 
ATOM     16  O   LIG d   1      -5.918  95.544 120.032  0.00  0.00    -0.276 OA
ATOM     17  H   LIG d   1      -5.349  92.639 121.135  0.00  0.00     0.149 HD
ENDBRANCH   6  13
BRANCH   5  18
ATOM     18  N   LIG d   1      -7.789  93.420 118.442  0.00  0.00     0.381 N 
ATOM     19  H   LIG d   1      -8.259  93.396 117.559  0.00  0.00    -0.090 HD
ATOM     20  H   LIG d   1      -7.363  94.323 118.548  0.00  0.00    -0.090 HD
ATOM     21  H   LIG d   1      -8.442  93.263 119.178  0.00  0.00    -0.090 HD
ENDBRANCH   5  18
BRANCH   3  22
ATOM     22  C   LIG d   1      -5.536  90.022 115.928  0.00  0.00     0.382 C 
ATOM     23  O   LIG d   1      -6.653  89.583 115.562  0.00  0.00    -0.241 OA
ATOM     24  O   LIG d   1      -4.497  89.549 115.430  0.00  0.00    -0.241 OA
ENDBRANCH   3  22
TORSDOF 7
ENDMDL
MODEL 6
REMARK VINA RESULT:      -4.6      2.368      4.910
REMARK  7 active torsions:
REMARK  status: ('A' for Active; 'I' for Inactive)
REMARK    1  A    between atoms: C_2  and  C_3 
REMARK    2  A    between atoms: C_3  and  O_6 
REMARK    3  A    between atoms: C_3  and  C_4 
REMARK    4  A    between atoms: C_7  and  O_6 
REMARK    5  A    between atoms: C_9  and  C_10 
REMARK    6  A    between atoms: N_15  and  C_14 
REMARK    7  A    between atoms: N_20  and  C_19 
REMARK       I    between atoms: C_22  and  N_20 
ROOT
ATOM      1  C   LIG d   1      -4.983  93.617 119.915  0.00  0.00     0.161 C 
ATOM      2  C   LIG d   1      -6.316  93.694 119.479  0.00  0.00     0.016 C 
ATOM      3  C   LIG d   1      -7.086  94.879 119.536  0.00  0.00     0.038 C 
ATOM      4  C   LIG d   1      -6.523  96.112 119.896  0.00  0.00     0.028 C 
ATOM      5  C   LIG d   1      -5.319  95.982 120.823  0.00  0.00    -0.047 C 
ATOM      6  C   LIG d   1      -4.317  94.978 120.206  0.00  0.00     0.091 C 
ENDROOT
BRANCH   1   7
ATOM      7  O   LIG d   1      -4.200  92.870 118.962  0.00  0.00    -0.368 OA
BRANCH   7   8
ATOM      8  C   LIG d   1      -4.154  91.436 119.160  0.00  0.00     0.119 C 
BRANCH   8   9
ATOM      9  C   LIG d   1      -2.988  91.139 120.123  0.00  0.00     0.028 C 
ATOM     10  C   LIG d   1      -1.661  91.752 119.644  0.00  0.00     0.006 C 
ENDBRANCH   8   9
BRANCH   8  11
ATOM     11  C   LIG d   1      -3.803  90.705 117.860  0.00  0.00     0.028 C 
ATOM     12  C   LIG d   1      -4.700  91.120 116.683  0.00  0.00     0.006 C 
ENDBRANCH   8  11
ENDBRANCH   7   8
ENDBRANCH   1   7
BRANCH   6  13
ATOM     13  N   LIG d   1      -3.149  94.728 121.090  0.00  0.00    -0.311 N 
ATOM     14  C   LIG d   1      -1.977  95.345 120.948  0.00  0.00     0.210 C 
ATOM     15  C   LIG d   1      -0.900  94.926 121.953  0.00  0.00     0.109 C 
ATOM     16  O   LIG d   1      -1.738  96.224 120.106  0.00  0.00    -0.276 OA
ATOM     17  H   LIG d   1      -3.266  94.053 121.820  0.00  0.00     0.149 HD
ENDBRANCH   6  13
BRANCH   5  18
ATOM     18  N   LIG d   1      -4.748  97.330 121.005  0.00  0.00     0.381 N 
ATOM     19  H   LIG d   1      -5.133  97.752 121.827  0.00  0.00    -0.090 HD
ATOM     20  H   LIG d   1      -4.995  97.897 120.214  0.00  0.00    -0.090 HD
ATOM     21  H   LIG d   1      -3.757  97.272 121.085  0.00  0.00    -0.090 HD
ENDBRANCH   5  18
BRANCH   3  22
ATOM     22  C   LIG d   1      -8.446  94.828 119.270  0.00  0.00     0.382 C 
ATOM     23  O   LIG d   1      -9.238  95.560 119.911  0.00  0.00    -0.241 OA
ATOM     24  O   LIG d   1      -8.895  94.029 118.427  0.00  0.00    -0.241 OA
ENDBRANCH   3  22
TORSDOF 7
ENDMDL
MODEL 7
REMARK VINA RESULT:      -4.5      1.604      4.598
REMARK  7 active torsions:
REMARK  status: ('A' for Active; 'I' for Inactive)
REMARK    1  A    between atoms: C_2  and  C_3 
REMARK    2  A    between atoms: C_3  and  O_6 
REMARK    3  A    between atoms: C_3  and  C_4 
REMARK    4  A    between atoms: C_7  and  O_6 
REMARK    5  A    between atoms: C_9  and  C_10 
REMARK    6  A    between atoms: N_15  and  C_14 
REMARK    7  A    between atoms: N_20  and  C_19 
REMARK       I    between atoms: C_22  and  N_20 
ROOT
ATOM      1  C   LIG d   1      -5.297  92.236 119.640  0.00  0.00     0.161 C 
ATOM      2  C   LIG d   1      -4.256  92.539 120.532  0.00  0.00     0.016 C 
ATOM      3  C   LIG d   1      -2.897  92.251 120.269  0.00  0.00     0.038 C 
ATOM      4  C   LIG d   1      -2.468  91.776 119.020  0.00  0.00     0.028 C 
ATOM      5  C   LIG d   1      -3.537  90.984 118.274  0.00  0.00    -0.047 C 
ATOM      6  C   LIG d   1      -4.837  91.819 118.227  0.00  0.00     0.091 C 
ENDROOT
BRANCH   1   7
ATOM      7  O   LIG d   1      -6.212  93.347 119.561  0.00  0.00    -0.368 OA
BRANCH   7   8
ATOM      8  C   LIG d   1      -5.917  94.477 120.419  0.00  0.00     0.119 C 
BRANCH   8   9
ATOM      9  C   LIG d   1      -7.171  94.749 121.272  0.00  0.00     0.028 C 
ATOM     10  C   LIG d   1      -8.093  95.806 120.640  0.00  0.00     0.006 C 
ENDBRANCH   8   9
BRANCH   8  11
ATOM     11  C   LIG d   1      -5.696  95.754 119.603  0.00  0.00     0.028 C 
ATOM     12  C   LIG d   1      -4.309  96.375 119.832  0.00  0.00     0.006 C 
ENDBRANCH   8  11
ENDBRANCH   7   8
ENDBRANCH   1   7
BRANCH   6  13
ATOM     13  N   LIG d   1      -5.960  91.083 117.588  0.00  0.00    -0.311 N 
ATOM     14  C   LIG d   1      -6.165  91.059 116.272  0.00  0.00     0.210 C 
ATOM     15  C   LIG d   1      -7.391  90.257 115.824  0.00  0.00     0.109 C 
ATOM     16  O   LIG d   1      -5.429  91.598 115.431  0.00  0.00    -0.276 OA
ATOM     17  H   LIG d   1      -6.587  90.592 118.194  0.00  0.00     0.149 HD
ENDBRANCH   6  13
BRANCH   5  18
ATOM     18  N   LIG d   1      -3.004  90.668 116.936  0.00  0.00     0.381 N 
ATOM     19  H   LIG d   1      -2.106  90.236 117.022  0.00  0.00    -0.090 HD
ATOM     20  H   LIG d   1      -2.895  91.523 116.419  0.00  0.00    -0.090 HD
ATOM     21  H   LIG d   1      -3.629  90.058 116.455  0.00  0.00    -0.090 HD
ENDBRANCH   5  18
BRANCH   3  22
ATOM     22  C   LIG d   1      -1.955  92.402 121.275  0.00  0.00     0.382 C 
ATOM     23  O   LIG d   1      -1.488  91.392 121.854  0.00  0.00    -0.241 OA
ATOM     24  O   LIG d   1      -1.598  93.538 121.641  0.00  0.00    -0.241 OA
ENDBRANCH   3  22
TORSDOF 7
ENDMDL
MODEL 8
REMARK VINA RESULT:      -4.3      1.955      2.306
REMARK  7 active torsions:
REMARK  status: ('A' for Active; 'I' for Inactive)
REMARK    1  A    between atoms: C_2  and  C_3 
REMARK    2  A    between atoms: C_3  and  O_6 
REMARK    3  A    between atoms: C_3  and  C_4 
REMARK    4  A    between atoms: C_7  and  O_6 
REMARK    5  A    between atoms: C_9  and  C_10 
REMARK    6  A    between atoms: N_15  and  C_14 
REMARK    7  A    between atoms: N_20  and  C_19 
REMARK       I    between atoms: C_22  and  N_20 
ROOT
ATOM      1  C   LIG d   1      -4.015  92.421 119.748  0.00  0.00     0.161 C 
ATOM      2  C   LIG d   1      -5.135  91.999 119.011  0.00  0.00     0.016 C 
ATOM      3  C   LIG d   1      -5.042  91.272 117.802  0.00  0.00     0.038 C 
ATOM      4  C   LIG d   1      -3.818  90.782 117.323  0.00  0.00     0.028 C 
ATOM      5  C   LIG d   1      -2.619  91.613 117.766  0.00  0.00    -0.047 C 
ATOM      6  C   LIG d   1      -2.676  91.800 119.299  0.00  0.00     0.091 C 
ENDROOT
BRANCH   1   7
ATOM      7  O   LIG d   1      -4.235  92.179 121.151  0.00  0.00    -0.368 OA
BRANCH   7   8
ATOM      8  C   LIG d   1      -4.172  93.340 122.016  0.00  0.00     0.119 C 
BRANCH   8   9
ATOM      9  C   LIG d   1      -5.412  93.304 122.930  0.00  0.00     0.028 C 
ATOM     10  C   LIG d   1      -6.224  92.009 122.767  0.00  0.00     0.006 C 
ENDBRANCH   8   9
BRANCH   8  11
ATOM     11  C   LIG d   1      -4.296  94.639 121.214  0.00  0.00     0.028 C 
ATOM     12  C   LIG d   1      -3.105  95.586 121.427  0.00  0.00     0.006 C 
ENDBRANCH   8  11
ENDBRANCH   7   8
ENDBRANCH   1   7
BRANCH   6  13
ATOM     13  N   LIG d   1      -1.584  92.672 119.805  0.00  0.00    -0.311 N 
ATOM     14  C   LIG d   1      -0.836  92.371 120.865  0.00  0.00     0.210 C 
ATOM     15  C   LIG d   1       0.222  93.418 121.229  0.00  0.00     0.109 C 
ATOM     16  O   LIG d   1      -0.925  91.320 121.518  0.00  0.00    -0.276 OA
ATOM     17  H   LIG d   1      -1.422  93.530 119.315  0.00  0.00     0.149 HD
ENDBRANCH   6  13
BRANCH   5  18
ATOM     18  N   LIG d   1      -1.401  90.914 117.313  0.00  0.00     0.381 N 
ATOM     19  H   LIG d   1      -0.746  91.577 116.949  0.00  0.00    -0.090 HD
ATOM     20  H   LIG d   1      -1.647  90.276 116.577  0.00  0.00    -0.090 HD
ATOM     21  H   LIG d   1      -0.992  90.416 118.073  0.00  0.00    -0.090 HD
ENDBRANCH   5  18
BRANCH   3  22
ATOM     22  C   LIG d   1      -6.180  91.062 117.038  0.00  0.00     0.382 C 
ATOM     23  O   LIG d   1      -7.161  91.836 117.148  0.00  0.00    -0.241 OA
ATOM     24  O   LIG d   1      -6.255  90.082 116.272  0.00  0.00    -0.241 OA
ENDBRANCH   3  22
TORSDOF 7
ENDMDL
MODEL 9
REMARK VINA RESULT:      -4.1      1.540      2.126
REMARK  7 active torsions:
REMARK  status: ('A' for Active; 'I' for Inactive)
REMARK    1  A    between atoms: C_2  and  C_3 
REMARK    2  A    between atoms: C_3  and  O_6 
REMARK    3  A    between atoms: C_3  and  C_4 
REMARK    4  A    between atoms: C_7  and  O_6 
REMARK    5  A    between atoms: C_9  and  C_10 
REMARK    6  A    between atoms: N_15  and  C_14 
REMARK    7  A    between atoms: N_20  and  C_19 
REMARK       I    between atoms: C_22  and  N_20 
ROOT
ATOM      1  C   LIG d   1      -5.158  94.141 119.611  0.00  0.00     0.161 C 
ATOM      2  C   LIG d   1      -5.915  93.273 118.807  0.00  0.00     0.016 C 
ATOM      3  C   LIG d   1      -5.447  92.015 118.364  0.00  0.00     0.038 C 
ATOM      4  C   LIG d   1      -4.239  91.470 118.824  0.00  0.00     0.028 C 
ATOM      5  C   LIG d   1      -3.216  92.524 119.234  0.00  0.00    -0.047 C 
ATOM      6  C   LIG d   1      -3.883  93.517 120.214  0.00  0.00     0.091 C 
ENDROOT
BRANCH   1   7
ATOM      7  O   LIG d   1      -5.988  94.690 120.653  0.00  0.00    -0.368 OA
BRANCH   7   8
ATOM      8  C   LIG d   1      -7.129  93.889 121.048  0.00  0.00     0.119 C 
BRANCH   8   9
ATOM      9  C   LIG d   1      -8.378  94.788 120.964  0.00  0.00     0.028 C 
ATOM     10  C   LIG d   1      -8.023  96.284 120.932  0.00  0.00     0.006 C 
ENDBRANCH   8   9
BRANCH   8  11
ATOM     11  C   LIG d   1      -7.031  93.467 122.517  0.00  0.00     0.028 C 
ATOM     12  C   LIG d   1      -6.215  92.180 122.715  0.00  0.00     0.006 C 
ENDBRANCH   8  11
ENDBRANCH   7   8
ENDBRANCH   1   7
BRANCH   6  13
ATOM     13  N   LIG d   1      -2.976  94.629 120.599  0.00  0.00    -0.311 N 
ATOM     14  C   LIG d   1      -2.201  94.602 121.682  0.00  0.00     0.210 C 
ATOM     15  C   LIG d   1      -1.358  95.861 121.906  0.00  0.00     0.109 C 
ATOM     16  O   LIG d   1      -2.109  93.642 122.462  0.00  0.00    -0.276 OA
ATOM     17  H   LIG d   1      -2.964  95.435 120.005  0.00  0.00     0.149 HD
ENDBRANCH   6  13
BRANCH   5  18
ATOM     18  N   LIG d   1      -2.060  91.820 119.821  0.00  0.00     0.381 N 
ATOM     19  H   LIG d   1      -1.212  92.272 119.545  0.00  0.00    -0.090 HD
ATOM     20  H   LIG d   1      -2.043  90.878 119.474  0.00  0.00    -0.090 HD
ATOM     21  H   LIG d   1      -2.134  91.814 120.815  0.00  0.00    -0.090 HD
ENDBRANCH   5  18
BRANCH   3  22
ATOM     22  C   LIG d   1      -6.172  91.305 117.420  0.00  0.00     0.382 C 
ATOM     23  O   LIG d   1      -5.707  90.242 116.941  0.00  0.00    -0.241 OA
ATOM     24  O   LIG d   1      -7.265  91.736 117.007  0.00  0.00    -0.241 OA
ENDBRANCH   3  22
TORSDOF 7
ENDMDL
