MODEL 1
REMARK VINA RESULT:      -5.4      0.000      0.000
REMARK  7 active torsions:
REMARK  status: ('A' for Active; 'I' for Inactive)
REMARK    1  A    between atoms: C_2  and  C_3 
REMARK    2  A    between atoms: C_3  and  O_6 
REMARK    3  A    between atoms: C_3  and  C_4 
REMARK    4  A    between atoms: C_7  and  O_6 
REMARK    5  A    between atoms: C_9  and  C_10 
REMARK    6  A    between atoms: N_15  and  C_14 
REMARK    7  A    between atoms: N_20  and  C_19 
REMARK       I    between atoms: C_22  and  N_20 
ROOT
ATOM      1  C   LIG d   1      -6.697  92.804 117.532  0.00  0.00     0.161 C 
ATOM      2  C   LIG d   1      -7.930  92.786 118.205  0.00  0.00     0.016 C 
ATOM      3  C   LIG d   1      -8.539  93.942 118.744  0.00  0.00     0.038 C 
ATOM      4  C   LIG d   1      -8.026  95.227 118.512  0.00  0.00     0.028 C 
ATOM      5  C   LIG d   1      -6.520  95.243 118.271  0.00  0.00    -0.047 C 
ATOM      6  C   LIG d   1      -6.176  94.211 117.173  0.00  0.00     0.091 C 
ENDROOT
BRANCH   1   7
ATOM      7  O   LIG d   1      -6.772  91.981 116.351  0.00  0.00    -0.368 OA
BRANCH   7   8
ATOM      8  C   LIG d   1      -6.261  90.631 116.481  0.00  0.00     0.119 C 
BRANCH   8   9
ATOM      9  C   LIG d   1      -4.755  90.674 116.159  0.00  0.00     0.028 C 
ATOM     10  C   LIG d   1      -3.893  90.142 117.316  0.00  0.00     0.006 C 
ENDBRANCH   8   9
BRANCH   8  11
ATOM     11  C   LIG d   1      -6.874  89.701 115.430  0.00  0.00     0.028 C 
ATOM     12  C   LIG d   1      -8.392  89.529 115.599  0.00  0.00     0.006 C 
ENDBRANCH   8  11
ENDBRANCH   7   8
ENDBRANCH   1   7
BRANCH   6  13
ATOM     13  N   LIG d   1      -4.713  94.103 116.935  0.00  0.00    -0.311 N 
ATOM     14  C   LIG d   1      -3.838  93.781 117.886  0.00  0.00     0.210 C 
ATOM     15  C   LIG d   1      -2.375  93.744 117.433  0.00  0.00     0.109 C 
ATOM     16  O   LIG d   1      -4.137  93.492 119.054  0.00  0.00    -0.276 OA
ATOM     17  H   LIG d   1      -4.387  94.291 116.008  0.00  0.00     0.149 HD
ENDBRANCH   6  13
BRANCH   5  18
ATOM     18  N   LIG d   1      -6.142  96.622 117.908  0.00  0.00     0.381 N 
ATOM     19  H   LIG d   1      -6.585  96.880 117.049  0.00  0.00    -0.090 HD
ATOM     20  H   LIG d   1      -5.147  96.661 117.774  0.00  0.00    -0.090 HD
ATOM     21  H   LIG d   1      -6.412  97.252 118.631  0.00  0.00    -0.090 HD
ENDBRANCH   5  18
BRANCH   3  22
ATOM     22  C   LIG d   1      -9.655  93.816 119.558  0.00  0.00     0.382 C 
ATOM     23  O   LIG d   1      -9.898  92.722 120.122  0.00  0.00    -0.241 OA
ATOM     24  O   LIG d   1     -10.445  94.768 119.699  0.00  0.00    -0.241 OA
ENDBRANCH   3  22
TORSDOF 7
ENDMDL
MODEL 2
REMARK VINA RESULT:      -5.3      1.953      4.632
REMARK  7 active torsions:
REMARK  status: ('A' for Active; 'I' for Inactive)
REMARK    1  A    between atoms: C_2  and  C_3 
REMARK    2  A    between atoms: C_3  and  O_6 
REMARK    3  A    between atoms: C_3  and  C_4 
REMARK    4  A    between atoms: C_7  and  O_6 
REMARK    5  A    between atoms: C_9  and  C_10 
REMARK    6  A    between atoms: N_15  and  C_14 
REMARK    7  A    between atoms: N_20  and  C_19 
REMARK       I    between atoms: C_22  and  N_20 
ROOT
ATOM      1  C   LIG d   1      -6.934  93.788 117.406  0.00  0.00     0.161 C 
ATOM      2  C   LIG d   1      -7.407  92.564 116.906  0.00  0.00     0.016 C 
ATOM      3  C   LIG d   1      -6.558  91.527 116.455  0.00  0.00     0.038 C 
ATOM      4  C   LIG d   1      -5.166  91.587 116.615  0.00  0.00     0.028 C 
ATOM      5  C   LIG d   1      -4.620  93.010 116.651  0.00  0.00    -0.047 C 
ATOM      6  C   LIG d   1      -5.418  93.827 117.693  0.00  0.00     0.091 C 
ENDROOT
BRANCH   1   7
ATOM      7  O   LIG d   1      -7.676  94.153 118.587  0.00  0.00    -0.368 OA
BRANCH   7   8
ATOM      8  C   LIG d   1      -8.126  93.057 119.421  0.00  0.00     0.119 C 
BRANCH   8   9
ATOM      9  C   LIG d   1      -9.573  93.366 119.851  0.00  0.00     0.028 C 
ATOM     10  C   LIG d   1      -9.796  93.154 121.358  0.00  0.00     0.006 C 
ENDBRANCH   8   9
BRANCH   8  11
ATOM     11  C   LIG d   1      -7.323  92.983 120.724  0.00  0.00     0.028 C 
ATOM     12  C   LIG d   1      -6.221  91.913 120.684  0.00  0.00     0.006 C 
ENDBRANCH   8  11
ENDBRANCH   7   8
ENDBRANCH   1   7
BRANCH   6  13
ATOM     13  N   LIG d   1      -5.005  95.254 117.731  0.00  0.00    -0.311 N 
ATOM     14  C   LIG d   1      -4.055  95.721 118.541  0.00  0.00     0.210 C 
ATOM     15  C   LIG d   1      -3.798  97.227 118.435  0.00  0.00     0.109 C 
ATOM     16  O   LIG d   1      -3.379  95.024 119.313  0.00  0.00    -0.276 OA
ATOM     17  H   LIG d   1      -5.480  95.884 117.115  0.00  0.00     0.149 HD
ENDBRANCH   6  13
BRANCH   5  18
ATOM     18  N   LIG d   1      -3.180  92.928 116.960  0.00  0.00     0.381 N 
ATOM     19  H   LIG d   1      -3.023  93.193 117.912  0.00  0.00    -0.090 HD
ATOM     20  H   LIG d   1      -2.683  93.570 116.368  0.00  0.00    -0.090 HD
ATOM     21  H   LIG d   1      -2.851  92.000 116.808  0.00  0.00    -0.090 HD
ENDBRANCH   5  18
BRANCH   3  22
ATOM     22  C   LIG d   1      -7.099  90.432 115.798  0.00  0.00     0.382 C 
ATOM     23  O   LIG d   1      -6.377  89.441 115.532  0.00  0.00    -0.241 OA
ATOM     24  O   LIG d   1      -8.289  90.441 115.430  0.00  0.00    -0.241 OA
ENDBRANCH   3  22
TORSDOF 7
ENDMDL
MODEL 3
REMARK VINA RESULT:      -5.3      1.836      4.974
REMARK  7 active torsions:
REMARK  status: ('A' for Active; 'I' for Inactive)
REMARK    1  A    between atoms: C_2  and  C_3 
REMARK    2  A    between atoms: C_3  and  O_6 
REMARK    3  A    between atoms: C_3  and  C_4 
REMARK    4  A    between atoms: C_7  and  O_6 
REMARK    5  A    between atoms: C_9  and  C_10 
REMARK    6  A    between atoms: N_15  and  C_14 
REMARK    7  A    between atoms: N_20  and  C_19 
REMARK       I    between atoms: C_22  and  N_20 
ROOT
ATOM      1  C   LIG d   1      -6.931  93.771 117.370  0.00  0.00     0.161 C 
ATOM      2  C   LIG d   1      -7.413  92.552 116.864  0.00  0.00     0.016 C 
ATOM      3  C   LIG d   1      -6.572  91.508 116.416  0.00  0.00     0.038 C 
ATOM      4  C   LIG d   1      -5.180  91.552 116.587  0.00  0.00     0.028 C 
ATOM      5  C   LIG d   1      -4.620  92.970 116.629  0.00  0.00    -0.047 C 
ATOM      6  C   LIG d   1      -5.416  93.793 117.666  0.00  0.00     0.091 C 
ENDROOT
BRANCH   1   7
ATOM      7  O   LIG d   1      -7.677  94.141 118.545  0.00  0.00    -0.368 OA
BRANCH   7   8
ATOM      8  C   LIG d   1      -8.856  94.954 118.322  0.00  0.00     0.119 C 
BRANCH   8   9
ATOM      9  C   LIG d   1      -8.406  96.230 117.585  0.00  0.00     0.028 C 
ATOM     10  C   LIG d   1      -8.036  97.367 118.552  0.00  0.00     0.006 C 
ENDBRANCH   8   9
BRANCH   8  11
ATOM     11  C   LIG d   1      -9.456  95.440 119.645  0.00  0.00     0.028 C 
ATOM     12  C   LIG d   1      -9.061  94.557 120.839  0.00  0.00     0.006 C 
ENDBRANCH   8  11
ENDBRANCH   7   8
ENDBRANCH   1   7
BRANCH   6  13
ATOM     13  N   LIG d   1      -4.988  95.216 117.711  0.00  0.00    -0.311 N 
ATOM     14  C   LIG d   1      -4.068  95.678 118.556  0.00  0.00     0.210 C 
ATOM     15  C   LIG d   1      -3.789  97.181 118.448  0.00  0.00     0.109 C 
ATOM     16  O   LIG d   1      -3.434  94.981 119.362  0.00  0.00    -0.276 OA
ATOM     17  H   LIG d   1      -5.429  95.845 117.069  0.00  0.00     0.149 HD
ENDBRANCH   6  13
BRANCH   5  18
ATOM     18  N   LIG d   1      -3.183  92.872 116.948  0.00  0.00     0.381 N 
ATOM     19  H   LIG d   1      -3.041  92.189 117.665  0.00  0.00    -0.090 HD
ATOM     20  H   LIG d   1      -2.865  93.761 117.292  0.00  0.00    -0.090 HD
ATOM     21  H   LIG d   1      -2.669  92.620 116.133  0.00  0.00    -0.090 HD
ENDBRANCH   5  18
BRANCH   3  22
ATOM     22  C   LIG d   1      -7.120  90.420 115.754  0.00  0.00     0.382 C 
ATOM     23  O   LIG d   1      -8.332  90.429 115.430  0.00  0.00    -0.241 OA
ATOM     24  O   LIG d   1      -6.429  89.411 115.516  0.00  0.00    -0.241 OA
ENDBRANCH   3  22
TORSDOF 7
ENDMDL
MODEL 4
REMARK VINA RESULT:      -5.2      2.373      4.626
REMARK  7 active torsions:
REMARK  status: ('A' for Active; 'I' for Inactive)
REMARK    1  A    between atoms: C_2  and  C_3 
REMARK    2  A    between atoms: C_3  and  O_6 
REMARK    3  A    between atoms: C_3  and  C_4 
REMARK    4  A    between atoms: C_7  and  O_6 
REMARK    5  A    between atoms: C_9  and  C_10 
REMARK    6  A    between atoms: N_15  and  C_14 
REMARK    7  A    between atoms: N_20  and  C_19 
REMARK       I    between atoms: C_22  and  N_20 
ROOT
ATOM      1  C   LIG d   1      -5.813  92.340 118.508  0.00  0.00     0.161 C 
ATOM      2  C   LIG d   1      -5.824  91.207 117.676  0.00  0.00     0.016 C 
ATOM      3  C   LIG d   1      -6.588  91.121 116.490  0.00  0.00     0.038 C 
ATOM      4  C   LIG d   1      -7.281  92.225 115.972  0.00  0.00     0.028 C 
ATOM      5  C   LIG d   1      -7.705  93.229 117.039  0.00  0.00    -0.047 C 
ATOM      6  C   LIG d   1      -6.475  93.594 117.901  0.00  0.00     0.091 C 
ENDROOT
BRANCH   1   7
ATOM      7  O   LIG d   1      -4.462  92.634 118.915  0.00  0.00    -0.368 OA
BRANCH   7   8
ATOM      8  C   LIG d   1      -3.436  92.433 117.912  0.00  0.00     0.119 C 
BRANCH   8   9
ATOM      9  C   LIG d   1      -2.233  91.766 118.607  0.00  0.00     0.028 C 
ATOM     10  C   LIG d   1      -1.341  90.992 117.622  0.00  0.00     0.006 C 
ENDBRANCH   8   9
BRANCH   8  11
ATOM     11  C   LIG d   1      -2.908  93.768 117.380  0.00  0.00     0.028 C 
ATOM     12  C   LIG d   1      -3.034  94.909 118.402  0.00  0.00     0.006 C 
ENDBRANCH   8  11
ENDBRANCH   7   8
ENDBRANCH   1   7
BRANCH   6  13
ATOM     13  N   LIG d   1      -6.820  94.507 119.021  0.00  0.00    -0.311 N 
ATOM     14  C   LIG d   1      -6.721  95.833 118.943  0.00  0.00     0.210 C 
ATOM     15  C   LIG d   1      -7.107  96.587 120.220  0.00  0.00     0.109 C 
ATOM     16  O   LIG d   1      -6.381  96.459 117.928  0.00  0.00    -0.276 OA
ATOM     17  H   LIG d   1      -7.135  94.086 119.873  0.00  0.00     0.149 HD
ENDBRANCH   6  13
BRANCH   5  18
ATOM     18  N   LIG d   1      -8.293  94.392 116.348  0.00  0.00     0.381 N 
ATOM     19  H   LIG d   1      -9.234  94.531 116.659  0.00  0.00    -0.090 HD
ATOM     20  H   LIG d   1      -8.313  94.207 115.360  0.00  0.00    -0.090 HD
ATOM     21  H   LIG d   1      -7.751  95.207 116.530  0.00  0.00    -0.090 HD
ENDBRANCH   5  18
BRANCH   3  22
ATOM     22  C   LIG d   1      -6.697  89.906 115.830  0.00  0.00     0.382 C 
ATOM     23  O   LIG d   1      -5.665  89.315 115.430  0.00  0.00    -0.241 OA
ATOM     24  O   LIG d   1      -7.816  89.415 115.590  0.00  0.00    -0.241 OA
ENDBRANCH   3  22
TORSDOF 7
ENDMDL
MODEL 5
REMARK VINA RESULT:      -5.0      1.557      2.436
REMARK  7 active torsions:
REMARK  status: ('A' for Active; 'I' for Inactive)
REMARK    1  A    between atoms: C_2  and  C_3 
REMARK    2  A    between atoms: C_3  and  O_6 
REMARK    3  A    between atoms: C_3  and  C_4 
REMARK    4  A    between atoms: C_7  and  O_6 
REMARK    5  A    between atoms: C_9  and  C_10 
REMARK    6  A    between atoms: N_15  and  C_14 
REMARK    7  A    between atoms: N_20  and  C_19 
REMARK       I    between atoms: C_22  and  N_20 
ROOT
ATOM      1  C   LIG d   1      -6.119  92.792 118.539  0.00  0.00     0.161 C 
ATOM      2  C   LIG d   1      -7.365  93.428 118.405  0.00  0.00     0.016 C 
ATOM      3  C   LIG d   1      -7.509  94.811 118.152  0.00  0.00     0.038 C 
ATOM      4  C   LIG d   1      -6.408  95.631 117.863  0.00  0.00     0.028 C 
ATOM      5  C   LIG d   1      -5.106  95.137 118.484  0.00  0.00    -0.047 C 
ATOM      6  C   LIG d   1      -4.907  93.649 118.117  0.00  0.00     0.091 C 
ENDROOT
BRANCH   1   7
ATOM      7  O   LIG d   1      -6.127  91.545 117.817  0.00  0.00    -0.368 OA
BRANCH   7   8
ATOM      8  C   LIG d   1      -5.931  91.637 116.384  0.00  0.00     0.119 C 
BRANCH   8   9
ATOM      9  C   LIG d   1      -7.284  91.334 115.712  0.00  0.00     0.028 C 
ATOM     10  C   LIG d   1      -7.693  89.858 115.855  0.00  0.00     0.006 C 
ENDBRANCH   8   9
BRANCH   8  11
ATOM     11  C   LIG d   1      -4.976  90.551 115.881  0.00  0.00     0.028 C 
ATOM     12  C   LIG d   1      -4.026  90.039 116.975  0.00  0.00     0.006 C 
ENDBRANCH   8  11
ENDBRANCH   7   8
ENDBRANCH   1   7
BRANCH   6  13
ATOM     13  N   LIG d   1      -3.699  93.064 118.755  0.00  0.00    -0.311 N 
ATOM     14  C   LIG d   1      -2.493  93.076 118.189  0.00  0.00     0.210 C 
ATOM     15  C   LIG d   1      -1.388  92.401 119.008  0.00  0.00     0.109 C 
ATOM     16  O   LIG d   1      -2.227  93.609 117.101  0.00  0.00    -0.276 OA
ATOM     17  H   LIG d   1      -3.818  92.639 119.653  0.00  0.00     0.149 HD
ENDBRANCH   6  13
BRANCH   5  18
ATOM     18  N   LIG d   1      -4.020  96.005 117.991  0.00  0.00     0.381 N 
ATOM     19  H   LIG d   1      -3.341  95.454 117.504  0.00  0.00    -0.090 HD
ATOM     20  H   LIG d   1      -3.569  96.440 118.776  0.00  0.00    -0.090 HD
ATOM     21  H   LIG d   1      -4.390  96.702 117.383  0.00  0.00    -0.090 HD
ENDBRANCH   5  18
BRANCH   3  22
ATOM     22  C   LIG d   1      -8.765  95.396 118.225  0.00  0.00     0.382 C 
ATOM     23  O   LIG d   1      -8.931  96.574 117.829  0.00  0.00    -0.241 OA
ATOM     24  O   LIG d   1      -9.722  94.775 118.724  0.00  0.00    -0.241 OA
ENDBRANCH   3  22
TORSDOF 7
ENDMDL
MODEL 6
REMARK VINA RESULT:      -4.9      3.121      5.305
REMARK  7 active torsions:
REMARK  status: ('A' for Active; 'I' for Inactive)
REMARK    1  A    between atoms: C_2  and  C_3 
REMARK    2  A    between atoms: C_3  and  O_6 
REMARK    3  A    between atoms: C_3  and  C_4 
REMARK    4  A    between atoms: C_7  and  O_6 
REMARK    5  A    between atoms: C_9  and  C_10 
REMARK    6  A    between atoms: N_15  and  C_14 
REMARK    7  A    between atoms: N_20  and  C_19 
REMARK       I    between atoms: C_22  and  N_20 
ROOT
ATOM      1  C   LIG d   1      -3.893  92.492 117.535  0.00  0.00     0.161 C 
ATOM      2  C   LIG d   1      -5.000  93.324 117.299  0.00  0.00     0.016 C 
ATOM      3  C   LIG d   1      -6.107  92.941 116.507  0.00  0.00     0.038 C 
ATOM      4  C   LIG d   1      -6.252  91.634 116.018  0.00  0.00     0.028 C 
ATOM      5  C   LIG d   1      -4.923  90.915 115.809  0.00  0.00    -0.047 C 
ATOM      6  C   LIG d   1      -4.084  91.023 117.102  0.00  0.00     0.091 C 
ENDROOT
BRANCH   1   7
ATOM      7  O   LIG d   1      -3.519  92.560 118.925  0.00  0.00    -0.368 OA
BRANCH   7   8
ATOM      8  C   LIG d   1      -2.223  93.142 119.208  0.00  0.00     0.119 C 
BRANCH   8   9
ATOM      9  C   LIG d   1      -1.418  92.108 120.019  0.00  0.00     0.028 C 
ATOM     10  C   LIG d   1      -2.316  91.231 120.907  0.00  0.00     0.006 C 
ENDBRANCH   8   9
BRANCH   8  11
ATOM     11  C   LIG d   1      -2.349  94.365 120.122  0.00  0.00     0.028 C 
ATOM     12  C   LIG d   1      -1.831  95.655 119.467  0.00  0.00     0.006 C 
ENDBRANCH   8  11
ENDBRANCH   7   8
ENDBRANCH   1   7
BRANCH   6  13
ATOM     13  N   LIG d   1      -2.735  90.419 116.955  0.00  0.00    -0.311 N 
ATOM     14  C   LIG d   1      -2.339  89.337 117.625  0.00  0.00     0.210 C 
ATOM     15  C   LIG d   1      -0.902  88.891 117.340  0.00  0.00     0.109 C 
ATOM     16  O   LIG d   1      -3.052  88.687 118.403  0.00  0.00    -0.276 OA
ATOM     17  H   LIG d   1      -2.102  90.864 116.320  0.00  0.00     0.149 HD
ENDBRANCH   6  13
BRANCH   5  18
ATOM     18  N   LIG d   1      -5.226  89.522 115.431  0.00  0.00     0.381 N 
ATOM     19  H   LIG d   1      -4.561  88.904 115.852  0.00  0.00    -0.090 HD
ATOM     20  H   LIG d   1      -5.150  89.432 114.433  0.00  0.00    -0.090 HD
ATOM     21  H   LIG d   1      -6.147  89.281 115.724  0.00  0.00    -0.090 HD
ENDBRANCH   5  18
BRANCH   3  22
ATOM     22  C   LIG d   1      -7.065  93.883 116.163  0.00  0.00     0.382 C 
ATOM     23  O   LIG d   1      -6.995  95.046 116.627  0.00  0.00    -0.241 OA
ATOM     24  O   LIG d   1      -8.023  93.571 115.430  0.00  0.00    -0.241 OA
ENDBRANCH   3  22
TORSDOF 7
ENDMDL
MODEL 7
REMARK VINA RESULT:      -4.8      3.214      4.992
REMARK  7 active torsions:
REMARK  status: ('A' for Active; 'I' for Inactive)
REMARK    1  A    between atoms: C_2  and  C_3 
REMARK    2  A    between atoms: C_3  and  O_6 
REMARK    3  A    between atoms: C_3  and  C_4 
REMARK    4  A    between atoms: C_7  and  O_6 
REMARK    5  A    between atoms: C_9  and  C_10 
REMARK    6  A    between atoms: N_15  and  C_14 
REMARK    7  A    between atoms: N_20  and  C_19 
REMARK       I    between atoms: C_22  and  N_20 
ROOT
ATOM      1  C   LIG d   1      -3.998  93.215 117.597  0.00  0.00     0.161 C 
ATOM      2  C   LIG d   1      -4.069  94.599 117.828  0.00  0.00     0.016 C 
ATOM      3  C   LIG d   1      -3.014  95.348 118.397  0.00  0.00     0.038 C 
ATOM      4  C   LIG d   1      -1.750  94.787 118.635  0.00  0.00     0.028 C 
ATOM      5  C   LIG d   1      -1.793  93.283 118.887  0.00  0.00    -0.047 C 
ATOM      6  C   LIG d   1      -2.588  92.606 117.747  0.00  0.00     0.091 C 
ENDROOT
BRANCH   1   7
ATOM      7  O   LIG d   1      -4.540  92.909 116.297  0.00  0.00    -0.368 OA
BRANCH   7   8
ATOM      8  C   LIG d   1      -5.851  92.293 116.282  0.00  0.00     0.119 C 
BRANCH   8   9
ATOM      9  C   LIG d   1      -5.751  91.011 115.432  0.00  0.00     0.028 C 
ATOM     10  C   LIG d   1      -6.957  90.078 115.633  0.00  0.00     0.006 C 
ENDBRANCH   8   9
BRANCH   8  11
ATOM     11  C   LIG d   1      -6.874  93.177 115.564  0.00  0.00     0.028 C 
ATOM     12  C   LIG d   1      -7.805  93.921 116.536  0.00  0.00     0.006 C 
ENDBRANCH   8  11
ENDBRANCH   7   8
ENDBRANCH   1   7
BRANCH   6  13
ATOM     13  N   LIG d   1      -2.749  91.144 117.960  0.00  0.00    -0.311 N 
ATOM     14  C   LIG d   1      -1.894  90.236 117.493  0.00  0.00     0.210 C 
ATOM     15  C   LIG d   1      -2.258  88.782 117.808  0.00  0.00     0.109 C 
ATOM     16  O   LIG d   1      -0.851  90.499 116.876  0.00  0.00    -0.276 OA
ATOM     17  H   LIG d   1      -3.553  90.845 118.477  0.00  0.00     0.149 HD
ENDBRANCH   6  13
BRANCH   5  18
ATOM     18  N   LIG d   1      -0.400  92.808 118.982  0.00  0.00     0.381 N 
ATOM     19  H   LIG d   1      -0.346  91.856 118.679  0.00  0.00    -0.090 HD
ATOM     20  H   LIG d   1      -0.107  92.850 119.943  0.00  0.00    -0.090 HD
ATOM     21  H   LIG d   1       0.194  93.377 118.421  0.00  0.00    -0.090 HD
ENDBRANCH   5  18
BRANCH   3  22
ATOM     22  C   LIG d   1      -3.230  96.666 118.771  0.00  0.00     0.382 C 
ATOM     23  O   LIG d   1      -2.255  97.429 118.970  0.00  0.00    -0.241 OA
ATOM     24  O   LIG d   1      -4.387  97.088 118.955  0.00  0.00    -0.241 OA
ENDBRANCH   3  22
TORSDOF 7
ENDMDL
MODEL 8
REMARK VINA RESULT:      -4.8      2.708      4.407
REMARK  7 active torsions:
REMARK  status: ('A' for Active; 'I' for Inactive)
REMARK    1  A    between atoms: C_2  and  C_3 
REMARK    2  A    between atoms: C_3  and  O_6 
REMARK    3  A    between atoms: C_3  and  C_4 
REMARK    4  A    between atoms: C_7  and  O_6 
REMARK    5  A    between atoms: C_9  and  C_10 
REMARK    6  A    between atoms: N_15  and  C_14 
REMARK    7  A    between atoms: N_20  and  C_19 
REMARK       I    between atoms: C_22  and  N_20 
ROOT
ATOM      1  C   LIG d   1      -4.623  93.464 118.361  0.00  0.00     0.161 C 
ATOM      2  C   LIG d   1      -5.765  94.274 118.249  0.00  0.00     0.016 C 
ATOM      3  C   LIG d   1      -6.776  94.063 117.283  0.00  0.00     0.038 C 
ATOM      4  C   LIG d   1      -6.787  92.930 116.456  0.00  0.00     0.028 C 
ATOM      5  C   LIG d   1      -5.398  92.361 116.191  0.00  0.00    -0.047 C 
ATOM      6  C   LIG d   1      -4.672  92.158 117.540  0.00  0.00     0.091 C 
ENDROOT
BRANCH   1   7
ATOM      7  O   LIG d   1      -4.364  93.174 119.749  0.00  0.00    -0.368 OA
BRANCH   7   8
ATOM      8  C   LIG d   1      -4.924  91.938 120.257  0.00  0.00     0.119 C 
BRANCH   8   9
ATOM      9  C   LIG d   1      -6.012  92.311 121.283  0.00  0.00     0.028 C 
ATOM     10  C   LIG d   1      -7.428  91.979 120.784  0.00  0.00     0.006 C 
ENDBRANCH   8   9
BRANCH   8  11
ATOM     11  C   LIG d   1      -3.883  91.136 121.043  0.00  0.00     0.028 C 
ATOM     12  C   LIG d   1      -2.467  91.723 120.928  0.00  0.00     0.006 C 
ENDBRANCH   8  11
ENDBRANCH   7   8
ENDBRANCH   1   7
BRANCH   6  13
ATOM     13  N   LIG d   1      -3.275  91.683 117.367  0.00  0.00    -0.311 N 
ATOM     14  C   LIG d   1      -2.923  90.400 117.435  0.00  0.00     0.210 C 
ATOM     15  C   LIG d   1      -1.427  90.129 117.248  0.00  0.00     0.109 C 
ATOM     16  O   LIG d   1      -3.713  89.458 117.601  0.00  0.00    -0.276 OA
ATOM     17  H   LIG d   1      -2.574  92.378 117.198  0.00  0.00     0.149 HD
ENDBRANCH   6  13
BRANCH   5  18
ATOM     18  N   LIG d   1      -5.567  91.107 115.432  0.00  0.00     0.381 N 
ATOM     19  H   LIG d   1      -5.366  90.324 116.021  0.00  0.00    -0.090 HD
ATOM     20  H   LIG d   1      -4.917  91.100 114.666  0.00  0.00    -0.090 HD
ATOM     21  H   LIG d   1      -6.499  91.041 115.086  0.00  0.00    -0.090 HD
ENDBRANCH   5  18
BRANCH   3  22
ATOM     22  C   LIG d   1      -7.770  95.014 117.110  0.00  0.00     0.382 C 
ATOM     23  O   LIG d   1      -8.962  94.654 116.953  0.00  0.00    -0.241 OA
ATOM     24  O   LIG d   1      -7.485  96.226 117.066  0.00  0.00    -0.241 OA
ENDBRANCH   3  22
TORSDOF 7
ENDMDL
MODEL 9
REMARK VINA RESULT:      -4.8      2.781      5.235
REMARK  7 active torsions:
REMARK  status: ('A' for Active; 'I' for Inactive)
REMARK    1  A    between atoms: C_2  and  C_3 
REMARK    2  A    between atoms: C_3  and  O_6 
REMARK    3  A    between atoms: C_3  and  C_4 
REMARK    4  A    between atoms: C_7  and  O_6 
REMARK    5  A    between atoms: C_9  and  C_10 
REMARK    6  A    between atoms: N_15  and  C_14 
REMARK    7  A    between atoms: N_20  and  C_19 
REMARK       I    between atoms: C_22  and  N_20 
ROOT
ATOM      1  C   LIG d   1      -4.056  93.326 117.010  0.00  0.00     0.161 C 
ATOM      2  C   LIG d   1      -5.388  93.243 116.570  0.00  0.00     0.016 C 
ATOM      3  C   LIG d   1      -6.046  92.019 116.309  0.00  0.00     0.038 C 
ATOM      4  C   LIG d   1      -5.460  90.782 116.617  0.00  0.00     0.028 C 
ATOM      5  C   LIG d   1      -3.935  90.809 116.587  0.00  0.00    -0.047 C 
ATOM      6  C   LIG d   1      -3.437  91.986 117.457  0.00  0.00     0.091 C 
ENDROOT
BRANCH   1   7
ATOM      7  O   LIG d   1      -3.950  94.304 118.063  0.00  0.00    -0.368 OA
BRANCH   7   8
ATOM      8  C   LIG d   1      -4.399  93.880 119.374  0.00  0.00     0.119 C 
BRANCH   8   9
ATOM      9  C   LIG d   1      -5.396  94.937 119.886  0.00  0.00     0.028 C 
ATOM     10  C   LIG d   1      -6.845  94.623 119.479  0.00  0.00     0.006 C 
ENDBRANCH   8   9
BRANCH   8  11
ATOM     11  C   LIG d   1      -3.249  93.883 120.385  0.00  0.00     0.028 C 
ATOM     12  C   LIG d   1      -2.086  94.794 119.962  0.00  0.00     0.006 C 
ENDBRANCH   8  11
ENDBRANCH   7   8
ENDBRANCH   1   7
BRANCH   6  13
ATOM     13  N   LIG d   1      -1.959  92.136 117.415  0.00  0.00    -0.311 N 
ATOM     14  C   LIG d   1      -1.140  91.579 118.305  0.00  0.00     0.210 C 
ATOM     15  C   LIG d   1       0.347  91.877 118.090  0.00  0.00     0.109 C 
ATOM     16  O   LIG d   1      -1.501  90.841 119.234  0.00  0.00    -0.276 OA
ATOM     17  H   LIG d   1      -1.578  92.693 116.675  0.00  0.00     0.149 HD
ENDBRANCH   6  13
BRANCH   5  18
ATOM     18  N   LIG d   1      -3.456  89.497 117.060  0.00  0.00     0.381 N 
ATOM     19  H   LIG d   1      -2.547  89.313 116.686  0.00  0.00    -0.090 HD
ATOM     20  H   LIG d   1      -4.083  88.784 116.730  0.00  0.00    -0.090 HD
ATOM     21  H   LIG d   1      -3.422  89.485 118.056  0.00  0.00    -0.090 HD
ENDBRANCH   5  18
BRANCH   3  22
ATOM     22  C   LIG d   1      -7.289  92.024 115.697  0.00  0.00     0.382 C 
ATOM     23  O   LIG d   1      -7.853  93.113 115.431  0.00  0.00    -0.241 OA
ATOM     24  O   LIG d   1      -7.875  90.953 115.447  0.00  0.00    -0.241 OA
ENDBRANCH   3  22
TORSDOF 7
ENDMDL
