MODEL 1
REMARK VINA RESULT:      -5.1      0.000      0.000
REMARK  7 active torsions:
REMARK  status: ('A' for Active; 'I' for Inactive)
REMARK    1  A    between atoms: C_2  and  C_3 
REMARK    2  A    between atoms: C_3  and  O_6 
REMARK    3  A    between atoms: C_3  and  C_4 
REMARK    4  A    between atoms: C_7  and  O_6 
REMARK    5  A    between atoms: C_9  and  C_10 
REMARK    6  A    between atoms: N_15  and  C_14 
REMARK    7  A    between atoms: N_20  and  C_19 
REMARK       I    between atoms: C_22  and  N_20 
ROOT
ATOM      1  C   LIG d   1      -3.178  91.026 118.771  0.00  0.00     0.161 C 
ATOM      2  C   LIG d   1      -3.769  90.402 117.660  0.00  0.00     0.016 C 
ATOM      3  C   LIG d   1      -5.157  90.436 117.395  0.00  0.00     0.038 C 
ATOM      4  C   LIG d   1      -6.036  91.229 118.148  0.00  0.00     0.028 C 
ATOM      5  C   LIG d   1      -5.562  91.470 119.577  0.00  0.00    -0.047 C 
ATOM      6  C   LIG d   1      -4.106  91.988 119.542  0.00  0.00     0.091 C 
ENDROOT
BRANCH   1   7
ATOM      7  O   LIG d   1      -1.974  91.708 118.367  0.00  0.00    -0.368 OA
BRANCH   7   8
ATOM      8  C   LIG d   1      -0.738  91.209 118.934  0.00  0.00     0.119 C 
BRANCH   8   9
ATOM      9  C   LIG d   1       0.200  90.859 117.763  0.00  0.00     0.028 C 
ATOM     10  C   LIG d   1       0.074  89.389 117.329  0.00  0.00     0.006 C 
ENDBRANCH   8   9
BRANCH   8  11
ATOM     11  C   LIG d   1      -0.960  89.892 119.683  0.00  0.00     0.028 C 
ATOM     12  C   LIG d   1      -0.556  89.973 121.164  0.00  0.00     0.006 C 
ENDBRANCH   8  11
ENDBRANCH   7   8
ENDBRANCH   1   7
BRANCH   6  13
ATOM     13  N   LIG d   1      -3.536  92.170 120.902  0.00  0.00    -0.311 N 
ATOM     14  C   LIG d   1      -3.085  93.337 121.358  0.00  0.00     0.210 C 
ATOM     15  C   LIG d   1      -2.520  93.300 122.782  0.00  0.00     0.109 C 
ATOM     16  O   LIG d   1      -3.129  94.406 120.731  0.00  0.00    -0.276 OA
ATOM     17  H   LIG d   1      -3.492  91.360 121.490  0.00  0.00     0.149 HD
ENDBRANCH   6  13
BRANCH   5  18
ATOM     18  N   LIG d   1      -6.500  92.421 120.203  0.00  0.00     0.381 N 
ATOM     19  H   LIG d   1      -6.224  92.595 121.149  0.00  0.00    -0.090 HD
ATOM     20  H   LIG d   1      -7.418  92.014 120.212  0.00  0.00    -0.090 HD
ATOM     21  H   LIG d   1      -6.512  93.275 119.691  0.00  0.00    -0.090 HD
ENDBRANCH   5  18
BRANCH   3  22
ATOM     22  C   LIG d   1      -5.685  89.638 116.391  0.00  0.00     0.382 C 
ATOM     23  O   LIG d   1      -4.961  89.277 115.432  0.00  0.00    -0.241 OA
ATOM     24  O   LIG d   1      -6.887  89.312 116.409  0.00  0.00    -0.241 OA
ENDBRANCH   3  22
TORSDOF 7
ENDMDL
MODEL 2
REMARK VINA RESULT:      -4.9      2.460      5.743
REMARK  7 active torsions:
REMARK  status: ('A' for Active; 'I' for Inactive)
REMARK    1  A    between atoms: C_2  and  C_3 
REMARK    2  A    between atoms: C_3  and  O_6 
REMARK    3  A    between atoms: C_3  and  C_4 
REMARK    4  A    between atoms: C_7  and  O_6 
REMARK    5  A    between atoms: C_9  and  C_10 
REMARK    6  A    between atoms: N_15  and  C_14 
REMARK    7  A    between atoms: N_20  and  C_19 
REMARK       I    between atoms: C_22  and  N_20 
ROOT
ATOM      1  C   LIG d   1      -3.239  91.097 119.255  0.00  0.00     0.161 C 
ATOM      2  C   LIG d   1      -1.901  90.937 119.650  0.00  0.00     0.016 C 
ATOM      3  C   LIG d   1      -0.980  90.113 118.963  0.00  0.00     0.038 C 
ATOM      4  C   LIG d   1      -1.297  89.507 117.739  0.00  0.00     0.028 C 
ATOM      5  C   LIG d   1      -2.788  89.233 117.567  0.00  0.00    -0.047 C 
ATOM      6  C   LIG d   1      -3.574  90.531 117.859  0.00  0.00     0.091 C 
ENDROOT
BRANCH   1   7
ATOM      7  O   LIG d   1      -3.609  92.487 119.335  0.00  0.00    -0.368 OA
BRANCH   7   8
ATOM      8  C   LIG d   1      -4.155  92.931 120.601  0.00  0.00     0.119 C 
BRANCH   8   9
ATOM      9  C   LIG d   1      -5.436  92.115 120.864  0.00  0.00     0.028 C 
ATOM     10  C   LIG d   1      -5.443  91.465 122.258  0.00  0.00     0.006 C 
ENDBRANCH   8   9
BRANCH   8  11
ATOM     11  C   LIG d   1      -4.612  94.391 120.531  0.00  0.00     0.028 C 
ATOM     12  C   LIG d   1      -6.116  94.533 120.251  0.00  0.00     0.006 C 
ENDBRANCH   8  11
ENDBRANCH   7   8
ENDBRANCH   1   7
BRANCH   6  13
ATOM     13  N   LIG d   1      -5.045  90.330 117.796  0.00  0.00    -0.311 N 
ATOM     14  C   LIG d   1      -5.758  90.481 116.681  0.00  0.00     0.210 C 
ATOM     15  C   LIG d   1      -7.263  90.245 116.839  0.00  0.00     0.109 C 
ATOM     16  O   LIG d   1      -5.282  90.756 115.569  0.00  0.00    -0.276 OA
ATOM     17  H   LIG d   1      -5.507  90.074 118.646  0.00  0.00     0.149 HD
ENDBRANCH   6  13
BRANCH   5  18
ATOM     18  N   LIG d   1      -2.993  88.729 116.196  0.00  0.00     0.381 N 
ATOM     19  H   LIG d   1      -2.120  88.428 115.811  0.00  0.00    -0.090 HD
ATOM     20  H   LIG d   1      -3.348  89.475 115.625  0.00  0.00    -0.090 HD
ATOM     21  H   LIG d   1      -3.639  87.971 116.204  0.00  0.00    -0.090 HD
ENDBRANCH   5  18
BRANCH   3  22
ATOM     22  C   LIG d   1       0.263  89.856 119.523  0.00  0.00     0.382 C 
ATOM     23  O   LIG d   1       1.305  90.050 118.851  0.00  0.00    -0.241 OA
ATOM     24  O   LIG d   1       0.353  89.391 120.675  0.00  0.00    -0.241 OA
ENDBRANCH   3  22
TORSDOF 7
ENDMDL
MODEL 3
REMARK VINA RESULT:      -4.9      2.098      4.339
REMARK  7 active torsions:
REMARK  status: ('A' for Active; 'I' for Inactive)
REMARK    1  A    between atoms: C_2  and  C_3 
REMARK    2  A    between atoms: C_3  and  O_6 
REMARK    3  A    between atoms: C_3  and  C_4 
REMARK    4  A    between atoms: C_7  and  O_6 
REMARK    5  A    between atoms: C_9  and  C_10 
REMARK    6  A    between atoms: N_15  and  C_14 
REMARK    7  A    between atoms: N_20  and  C_19 
REMARK       I    between atoms: C_22  and  N_20 
ROOT
ATOM      1  C   LIG d   1      -4.639  91.398 119.407  0.00  0.00     0.161 C 
ATOM      2  C   LIG d   1      -5.783  91.084 118.655  0.00  0.00     0.016 C 
ATOM      3  C   LIG d   1      -5.748  90.318 117.467  0.00  0.00     0.038 C 
ATOM      4  C   LIG d   1      -4.576  89.682 117.030  0.00  0.00     0.028 C 
ATOM      5  C   LIG d   1      -3.301  90.386 117.480  0.00  0.00    -0.047 C 
ATOM      6  C   LIG d   1      -3.368  90.620 119.007  0.00  0.00     0.091 C 
ENDROOT
BRANCH   1   7
ATOM      7  O   LIG d   1      -4.914  91.221 120.811  0.00  0.00    -0.368 OA
BRANCH   7   8
ATOM      8  C   LIG d   1      -5.007  92.432 121.600  0.00  0.00     0.119 C 
BRANCH   8   9
ATOM      9  C   LIG d   1      -6.503  92.775 121.746  0.00  0.00     0.028 C 
ATOM     10  C   LIG d   1      -6.907  94.003 120.914  0.00  0.00     0.006 C 
ENDBRANCH   8   9
BRANCH   8  11
ATOM     11  C   LIG d   1      -4.388  93.625 120.866  0.00  0.00     0.028 C 
ATOM     12  C   LIG d   1      -3.171  94.210 121.600  0.00  0.00     0.006 C 
ENDBRANCH   8  11
ENDBRANCH   7   8
ENDBRANCH   1   7
BRANCH   6  13
ATOM     13  N   LIG d   1      -2.197  91.379 119.516  0.00  0.00    -0.311 N 
ATOM     14  C   LIG d   1      -1.121  90.799 120.046  0.00  0.00     0.210 C 
ATOM     15  C   LIG d   1      -0.036  91.767 120.528  0.00  0.00     0.109 C 
ATOM     16  O   LIG d   1      -0.949  89.574 120.133  0.00  0.00    -0.276 OA
ATOM     17  H   LIG d   1      -2.239  92.378 119.456  0.00  0.00     0.149 HD
ENDBRANCH   6  13
BRANCH   5  18
ATOM     18  N   LIG d   1      -2.160  89.544 117.074  0.00  0.00     0.381 N 
ATOM     19  H   LIG d   1      -1.404  90.123 116.767  0.00  0.00    -0.090 HD
ATOM     20  H   LIG d   1      -2.443  88.961 116.306  0.00  0.00    -0.090 HD
ATOM     21  H   LIG d   1      -1.865  88.978 117.839  0.00  0.00    -0.090 HD
ENDBRANCH   5  18
BRANCH   3  22
ATOM     22  C   LIG d   1      -6.885  90.215 116.681  0.00  0.00     0.382 C 
ATOM     23  O   LIG d   1      -7.361  91.236 116.130  0.00  0.00    -0.241 OA
ATOM     24  O   LIG d   1      -7.467  89.121 116.553  0.00  0.00    -0.241 OA
ENDBRANCH   3  22
TORSDOF 7
ENDMDL
MODEL 4
REMARK VINA RESULT:      -4.2      3.749      6.699
REMARK  7 active torsions:
REMARK  status: ('A' for Active; 'I' for Inactive)
REMARK    1  A    between atoms: C_2  and  C_3 
REMARK    2  A    between atoms: C_3  and  O_6 
REMARK    3  A    between atoms: C_3  and  C_4 
REMARK    4  A    between atoms: C_7  and  O_6 
REMARK    5  A    between atoms: C_9  and  C_10 
REMARK    6  A    between atoms: N_15  and  C_14 
REMARK    7  A    between atoms: N_20  and  C_19 
REMARK       I    between atoms: C_22  and  N_20 
ROOT
ATOM      1  C   LIG d   1       1.060  90.407 117.039  0.00  0.00     0.161 C 
ATOM      2  C   LIG d   1       2.327  91.007 116.947  0.00  0.00     0.016 C 
ATOM      3  C   LIG d   1       2.879  91.820 117.964  0.00  0.00     0.038 C 
ATOM      4  C   LIG d   1       2.261  91.965 119.214  0.00  0.00     0.028 C 
ATOM      5  C   LIG d   1       0.747  91.789 119.166  0.00  0.00    -0.047 C 
ATOM      6  C   LIG d   1       0.419  90.463 118.441  0.00  0.00     0.091 C 
ENDROOT
BRANCH   1   7
ATOM      7  O   LIG d   1       1.130  89.045 116.574  0.00  0.00    -0.368 OA
BRANCH   7   8
ATOM      8  C   LIG d   1       2.412  88.386 116.722  0.00  0.00     0.119 C 
BRANCH   8   9
ATOM      9  C   LIG d   1       2.672  87.584 115.432  0.00  0.00     0.028 C 
ATOM     10  C   LIG d   1       4.020  86.846 115.461  0.00  0.00     0.006 C 
ENDBRANCH   8   9
BRANCH   8  11
ATOM     11  C   LIG d   1       2.377  87.345 117.845  0.00  0.00     0.028 C 
ATOM     12  C   LIG d   1       2.966  87.872 119.164  0.00  0.00     0.006 C 
ENDBRANCH   8  11
ENDBRANCH   7   8
ENDBRANCH   1   7
BRANCH   6  13
ATOM     13  N   LIG d   1      -1.043  90.255 118.276  0.00  0.00    -0.311 N 
ATOM     14  C   LIG d   1      -1.809  89.668 119.194  0.00  0.00     0.210 C 
ATOM     15  C   LIG d   1      -3.287  89.535 118.815  0.00  0.00     0.109 C 
ATOM     16  O   LIG d   1      -1.410  89.273 120.300  0.00  0.00    -0.276 OA
ATOM     17  H   LIG d   1      -1.455  90.573 117.421  0.00  0.00     0.149 HD
ENDBRANCH   6  13
BRANCH   5  18
ATOM     18  N   LIG d   1       0.249  91.828 120.553  0.00  0.00     0.381 N 
ATOM     19  H   LIG d   1      -0.104  92.741 120.761  0.00  0.00    -0.090 HD
ATOM     20  H   LIG d   1       1.012  91.636 121.178  0.00  0.00    -0.090 HD
ATOM     21  H   LIG d   1      -0.470  91.150 120.677  0.00  0.00    -0.090 HD
ENDBRANCH   5  18
BRANCH   3  22
ATOM     22  C   LIG d   1       4.045  92.530 117.719  0.00  0.00     0.382 C 
ATOM     23  O   LIG d   1       4.005  93.585 117.041  0.00  0.00    -0.241 OA
ATOM     24  O   LIG d   1       5.142  92.105 118.129  0.00  0.00    -0.241 OA
ENDBRANCH   3  22
TORSDOF 7
ENDMDL
MODEL 5
REMARK VINA RESULT:      -4.1      2.386      4.344
REMARK  7 active torsions:
REMARK  status: ('A' for Active; 'I' for Inactive)
REMARK    1  A    between atoms: C_2  and  C_3 
REMARK    2  A    between atoms: C_3  and  O_6 
REMARK    3  A    between atoms: C_3  and  C_4 
REMARK    4  A    between atoms: C_7  and  O_6 
REMARK    5  A    between atoms: C_9  and  C_10 
REMARK    6  A    between atoms: N_15  and  C_14 
REMARK    7  A    between atoms: N_20  and  C_19 
REMARK       I    between atoms: C_22  and  N_20 
ROOT
ATOM      1  C   LIG d   1      -2.461  91.723 118.833  0.00  0.00     0.161 C 
ATOM      2  C   LIG d   1      -3.731  91.316 118.391  0.00  0.00     0.016 C 
ATOM      3  C   LIG d   1      -3.948  90.164 117.602  0.00  0.00     0.038 C 
ATOM      4  C   LIG d   1      -2.920  89.250 117.326  0.00  0.00     0.028 C 
ATOM      5  C   LIG d   1      -1.532  89.881 117.324  0.00  0.00    -0.047 C 
ATOM      6  C   LIG d   1      -1.342  90.678 118.635  0.00  0.00     0.091 C 
ENDROOT
BRANCH   1   7
ATOM      7  O   LIG d   1      -2.530  92.126 120.215  0.00  0.00    -0.368 OA
BRANCH   7   8
ATOM      8  C   LIG d   1      -3.563  91.496 121.012  0.00  0.00     0.119 C 
BRANCH   8   9
ATOM      9  C   LIG d   1      -4.393  92.617 121.667  0.00  0.00     0.028 C 
ATOM     10  C   LIG d   1      -5.857  92.615 121.196  0.00  0.00     0.006 C 
ENDBRANCH   8   9
BRANCH   8  11
ATOM     11  C   LIG d   1      -2.962  90.704 122.177  0.00  0.00     0.028 C 
ATOM     12  C   LIG d   1      -2.517  89.290 121.770  0.00  0.00     0.006 C 
ENDBRANCH   8  11
ENDBRANCH   7   8
ENDBRANCH   1   7
BRANCH   6  13
ATOM     13  N   LIG d   1      -0.043  91.397 118.679  0.00  0.00    -0.311 N 
ATOM     14  C   LIG d   1       1.059  90.889 119.229  0.00  0.00     0.210 C 
ATOM     15  C   LIG d   1       2.286  91.805 119.184  0.00  0.00     0.109 C 
ATOM     16  O   LIG d   1       1.144  89.754 119.721  0.00  0.00    -0.276 OA
ATOM     17  H   LIG d   1      -0.014  92.313 118.274  0.00  0.00     0.149 HD
ENDBRANCH   6  13
BRANCH   5  18
ATOM     18  N   LIG d   1      -0.548  88.795 117.161  0.00  0.00     0.381 N 
ATOM     19  H   LIG d   1      -0.732  88.296 116.313  0.00  0.00    -0.090 HD
ATOM     20  H   LIG d   1      -0.640  88.154 117.929  0.00  0.00    -0.090 HD
ATOM     21  H   LIG d   1       0.374  89.170 117.140  0.00  0.00    -0.090 HD
ENDBRANCH   5  18
BRANCH   3  22
ATOM     22  C   LIG d   1      -5.198  89.937 117.046  0.00  0.00     0.382 C 
ATOM     23  O   LIG d   1      -6.219  90.438 117.575  0.00  0.00    -0.241 OA
ATOM     24  O   LIG d   1      -5.322  89.202 116.048  0.00  0.00    -0.241 OA
ENDBRANCH   3  22
TORSDOF 7
ENDMDL
MODEL 6
REMARK VINA RESULT:      -4.0      2.651      3.875
REMARK  7 active torsions:
REMARK  status: ('A' for Active; 'I' for Inactive)
REMARK    1  A    between atoms: C_2  and  C_3 
REMARK    2  A    between atoms: C_3  and  O_6 
REMARK    3  A    between atoms: C_3  and  C_4 
REMARK    4  A    between atoms: C_7  and  O_6 
REMARK    5  A    between atoms: C_9  and  C_10 
REMARK    6  A    between atoms: N_15  and  C_14 
REMARK    7  A    between atoms: N_20  and  C_19 
REMARK       I    between atoms: C_22  and  N_20 
ROOT
ATOM      1  C   LIG d   1      -0.737  89.615 118.174  0.00  0.00     0.161 C 
ATOM      2  C   LIG d   1      -1.928  89.665 117.431  0.00  0.00     0.016 C 
ATOM      3  C   LIG d   1      -3.207  89.793 118.019  0.00  0.00     0.038 C 
ATOM      4  C   LIG d   1      -3.372  90.033 119.391  0.00  0.00     0.028 C 
ATOM      5  C   LIG d   1      -2.231  89.487 120.243  0.00  0.00    -0.047 C 
ATOM      6  C   LIG d   1      -0.888  89.988 119.664  0.00  0.00     0.091 C 
ENDROOT
BRANCH   1   7
ATOM      7  O   LIG d   1       0.264  90.444 117.549  0.00  0.00    -0.368 OA
BRANCH   7   8
ATOM      8  C   LIG d   1       1.343  89.746 116.881  0.00  0.00     0.119 C 
BRANCH   8   9
ATOM      9  C   LIG d   1       1.177  88.243 117.180  0.00  0.00     0.028 C 
ATOM     10  C   LIG d   1       1.316  87.375 115.918  0.00  0.00     0.006 C 
ENDBRANCH   8   9
BRANCH   8  11
ATOM     11  C   LIG d   1       2.704  90.129 117.469  0.00  0.00     0.028 C 
ATOM     12  C   LIG d   1       2.994  91.635 117.368  0.00  0.00     0.006 C 
ENDBRANCH   8  11
ENDBRANCH   7   8
ENDBRANCH   1   7
BRANCH   6  13
ATOM     13  N   LIG d   1       0.284  89.430 120.388  0.00  0.00    -0.311 N 
ATOM     14  C   LIG d   1       1.290  90.178 120.839  0.00  0.00     0.210 C 
ATOM     15  C   LIG d   1       2.409  89.401 121.540  0.00  0.00     0.109 C 
ATOM     16  O   LIG d   1       1.346  91.414 120.755  0.00  0.00    -0.276 OA
ATOM     17  H   LIG d   1       0.305  88.439 120.528  0.00  0.00     0.149 HD
ENDBRANCH   6  13
BRANCH   5  18
ATOM     18  N   LIG d   1      -2.461  89.926 121.632  0.00  0.00     0.381 N 
ATOM     19  H   LIG d   1      -1.936  89.352 122.260  0.00  0.00    -0.090 HD
ATOM     20  H   LIG d   1      -3.437  89.821 121.849  0.00  0.00    -0.090 HD
ATOM     21  H   LIG d   1      -2.192  90.880 121.737  0.00  0.00    -0.090 HD
ENDBRANCH   5  18
BRANCH   3  22
ATOM     22  C   LIG d   1      -4.342  89.641 117.236  0.00  0.00     0.382 C 
ATOM     23  O   LIG d   1      -5.458  90.017 117.670  0.00  0.00    -0.241 OA
ATOM     24  O   LIG d   1      -4.271  89.092 116.121  0.00  0.00    -0.241 OA
ENDBRANCH   3  22
TORSDOF 7
ENDMDL
MODEL 7
REMARK VINA RESULT:      -4.0      4.418      6.722
REMARK  7 active torsions:
REMARK  status: ('A' for Active; 'I' for Inactive)
REMARK    1  A    between atoms: C_2  and  C_3 
REMARK    2  A    between atoms: C_3  and  O_6 
REMARK    3  A    between atoms: C_3  and  C_4 
REMARK    4  A    between atoms: C_7  and  O_6 
REMARK    5  A    between atoms: C_9  and  C_10 
REMARK    6  A    between atoms: N_15  and  C_14 
REMARK    7  A    between atoms: N_20  and  C_19 
REMARK       I    between atoms: C_22  and  N_20 
ROOT
ATOM      1  C   LIG d   1       2.433  90.493 118.637  0.00  0.00     0.161 C 
ATOM      2  C   LIG d   1       1.187  89.901 118.901  0.00  0.00     0.016 C 
ATOM      3  C   LIG d   1       0.188  90.511 119.695  0.00  0.00     0.038 C 
ATOM      4  C   LIG d   1       0.312  91.830 120.157  0.00  0.00     0.028 C 
ATOM      5  C   LIG d   1       1.759  92.275 120.339  0.00  0.00    -0.047 C 
ATOM      6  C   LIG d   1       2.542  91.979 119.040  0.00  0.00     0.091 C 
ENDROOT
BRANCH   1   7
ATOM      7  O   LIG d   1       2.768  90.326 117.245  0.00  0.00    -0.368 OA
BRANCH   7   8
ATOM      8  C   LIG d   1       3.867  89.427 116.957  0.00  0.00     0.119 C 
BRANCH   8   9
ATOM      9  C   LIG d   1       4.785  90.130 115.937  0.00  0.00     0.028 C 
ATOM     10  C   LIG d   1       6.264  90.095 116.357  0.00  0.00     0.006 C 
ENDBRANCH   8   9
BRANCH   8  11
ATOM     11  C   LIG d   1       3.379  88.157 116.255  0.00  0.00     0.028 C 
ATOM     12  C   LIG d   1       2.023  88.345 115.556  0.00  0.00     0.006 C 
ENDBRANCH   8  11
ENDBRANCH   7   8
ENDBRANCH   1   7
BRANCH   6  13
ATOM     13  N   LIG d   1       3.987  92.306 119.162  0.00  0.00    -0.311 N 
ATOM     14  C   LIG d   1       4.651  93.036 118.267  0.00  0.00     0.210 C 
ATOM     15  C   LIG d   1       6.138  93.238 118.573  0.00  0.00     0.109 C 
ATOM     16  O   LIG d   1       4.143  93.561 117.265  0.00  0.00    -0.276 OA
ATOM     17  H   LIG d   1       4.471  91.946 119.961  0.00  0.00     0.149 HD
ENDBRANCH   6  13
BRANCH   5  18
ATOM     18  N   LIG d   1       1.744  93.708 120.691  0.00  0.00     0.381 N 
ATOM     19  H   LIG d   1       1.139  94.203 120.067  0.00  0.00    -0.090 HD
ATOM     20  H   LIG d   1       2.673  94.077 120.589  0.00  0.00    -0.090 HD
ATOM     21  H   LIG d   1       1.433  93.825 121.630  0.00  0.00    -0.090 HD
ENDBRANCH   5  18
BRANCH   3  22
ATOM     22  C   LIG d   1      -0.932  89.785 120.067  0.00  0.00     0.382 C 
ATOM     23  O   LIG d   1      -1.808  89.501 119.214  0.00  0.00    -0.241 OA
ATOM     24  O   LIG d   1      -1.101  89.448 121.255  0.00  0.00    -0.241 OA
ENDBRANCH   3  22
TORSDOF 7
ENDMDL
MODEL 8
REMARK VINA RESULT:      -4.0      3.564      6.181
REMARK  7 active torsions:
REMARK  status: ('A' for Active; 'I' for Inactive)
REMARK    1  A    between atoms: C_2  and  C_3 
REMARK    2  A    between atoms: C_3  and  O_6 
REMARK    3  A    between atoms: C_3  and  C_4 
REMARK    4  A    between atoms: C_7  and  O_6 
REMARK    5  A    between atoms: C_9  and  C_10 
REMARK    6  A    between atoms: N_15  and  C_14 
REMARK    7  A    between atoms: N_20  and  C_19 
REMARK       I    between atoms: C_22  and  N_20 
ROOT
ATOM      1  C   LIG d   1       1.230  91.565 119.593  0.00  0.00     0.161 C 
ATOM      2  C   LIG d   1       2.363  91.453 118.769  0.00  0.00     0.016 C 
ATOM      3  C   LIG d   1       2.330  90.889 117.473  0.00  0.00     0.038 C 
ATOM      4  C   LIG d   1       1.124  90.536 116.849  0.00  0.00     0.028 C 
ATOM      5  C   LIG d   1       0.019  90.164 117.832  0.00  0.00    -0.047 C 
ATOM      6  C   LIG d   1      -0.113  91.287 118.886  0.00  0.00     0.091 C 
ENDROOT
BRANCH   1   7
ATOM      7  O   LIG d   1       1.208  92.864 120.218  0.00  0.00    -0.368 OA
BRANCH   7   8
ATOM      8  C   LIG d   1       1.663  92.917 121.592  0.00  0.00     0.119 C 
BRANCH   8   9
ATOM      9  C   LIG d   1       0.416  93.048 122.488  0.00  0.00     0.028 C 
ATOM     10  C   LIG d   1      -0.631  94.008 121.900  0.00  0.00     0.006 C 
ENDBRANCH   8   9
BRANCH   8  11
ATOM     11  C   LIG d   1       2.487  94.181 121.858  0.00  0.00     0.028 C 
ATOM     12  C   LIG d   1       2.957  94.868 120.566  0.00  0.00     0.006 C 
ENDBRANCH   8  11
ENDBRANCH   7   8
ENDBRANCH   1   7
BRANCH   6  13
ATOM     13  N   LIG d   1      -1.115  90.964 119.935  0.00  0.00    -0.311 N 
ATOM     14  C   LIG d   1      -2.384  91.364 119.884  0.00  0.00     0.210 C 
ATOM     15  C   LIG d   1      -3.244  90.939 121.079  0.00  0.00     0.109 C 
ATOM     16  O   LIG d   1      -2.888  92.002 118.948  0.00  0.00    -0.276 OA
ATOM     17  H   LIG d   1      -0.799  90.423 120.716  0.00  0.00     0.149 HD
ENDBRANCH   6  13
BRANCH   5  18
ATOM     18  N   LIG d   1      -1.216  89.952 117.054  0.00  0.00     0.381 N 
ATOM     19  H   LIG d   1      -0.986  89.707 116.112  0.00  0.00    -0.090 HD
ATOM     20  H   LIG d   1      -1.740  90.809 117.037  0.00  0.00    -0.090 HD
ATOM     21  H   LIG d   1      -1.761  89.229 117.470  0.00  0.00    -0.090 HD
ENDBRANCH   5  18
BRANCH   3  22
ATOM     22  C   LIG d   1       3.517  90.637 116.803  0.00  0.00     0.382 C 
ATOM     23  O   LIG d   1       4.336  91.568 116.607  0.00  0.00    -0.241 OA
ATOM     24  O   LIG d   1       3.760  89.502 116.353  0.00  0.00    -0.241 OA
ENDBRANCH   3  22
TORSDOF 7
ENDMDL
MODEL 9
REMARK VINA RESULT:      -3.9      1.887      5.036
REMARK  7 active torsions:
REMARK  status: ('A' for Active; 'I' for Inactive)
REMARK    1  A    between atoms: C_2  and  C_3 
REMARK    2  A    between atoms: C_3  and  O_6 
REMARK    3  A    between atoms: C_3  and  C_4 
REMARK    4  A    between atoms: C_7  and  O_6 
REMARK    5  A    between atoms: C_9  and  C_10 
REMARK    6  A    between atoms: N_15  and  C_14 
REMARK    7  A    between atoms: N_20  and  C_19 
REMARK       I    between atoms: C_22  and  N_20 
ROOT
ATOM      1  C   LIG d   1      -1.621  91.079 118.568  0.00  0.00     0.161 C 
ATOM      2  C   LIG d   1      -0.948  91.592 119.690  0.00  0.00     0.016 C 
ATOM      3  C   LIG d   1      -1.603  92.252 120.755  0.00  0.00     0.038 C 
ATOM      4  C   LIG d   1      -3.002  92.311 120.843  0.00  0.00     0.028 C 
ATOM      5  C   LIG d   1      -3.697  92.252 119.487  0.00  0.00    -0.047 C 
ATOM      6  C   LIG d   1      -3.158  91.036 118.699  0.00  0.00     0.091 C 
ENDROOT
BRANCH   1   7
ATOM      7  O   LIG d   1      -1.108  89.771 118.247  0.00  0.00    -0.368 OA
BRANCH   7   8
ATOM      8  C   LIG d   1      -0.160  89.709 117.153  0.00  0.00     0.119 C 
BRANCH   8   9
ATOM      9  C   LIG d   1       1.010  88.813 117.605  0.00  0.00     0.028 C 
ATOM     10  C   LIG d   1       1.310  87.689 116.600  0.00  0.00     0.006 C 
ENDBRANCH   8   9
BRANCH   8  11
ATOM     11  C   LIG d   1       0.462  91.080 116.876  0.00  0.00     0.028 C 
ATOM     12  C   LIG d   1       1.940  91.159 117.291  0.00  0.00     0.006 C 
ENDBRANCH   8  11
ENDBRANCH   7   8
ENDBRANCH   1   7
BRANCH   6  13
ATOM     13  N   LIG d   1      -3.724  90.953 117.328  0.00  0.00    -0.311 N 
ATOM     14  C   LIG d   1      -4.883  90.359 117.048  0.00  0.00     0.210 C 
ATOM     15  C   LIG d   1      -5.273  90.368 115.566  0.00  0.00     0.109 C 
ATOM     16  O   LIG d   1      -5.640  89.854 117.890  0.00  0.00    -0.276 OA
ATOM     17  H   LIG d   1      -3.189  91.364 116.588  0.00  0.00     0.149 HD
ENDBRANCH   6  13
BRANCH   5  18
ATOM     18  N   LIG d   1      -5.150  92.183 119.733  0.00  0.00     0.381 N 
ATOM     19  H   LIG d   1      -5.440  91.227 119.779  0.00  0.00    -0.090 HD
ATOM     20  H   LIG d   1      -5.630  92.622 118.968  0.00  0.00    -0.090 HD
ATOM     21  H   LIG d   1      -5.373  92.647 120.586  0.00  0.00    -0.090 HD
ENDBRANCH   5  18
BRANCH   3  22
ATOM     22  C   LIG d   1      -0.854  92.897 121.727  0.00  0.00     0.382 C 
ATOM     23  O   LIG d   1      -0.591  92.313 122.806  0.00  0.00    -0.241 OA
ATOM     24  O   LIG d   1      -0.477  94.072 121.558  0.00  0.00    -0.241 OA
ENDBRANCH   3  22
TORSDOF 7
ENDMDL
