MODEL 1
REMARK VINA RESULT:      -4.9      0.000      0.000
REMARK  7 active torsions:
REMARK  status: ('A' for Active; 'I' for Inactive)
REMARK    1  A    between atoms: C_2  and  C_3 
REMARK    2  A    between atoms: C_3  and  O_6 
REMARK    3  A    between atoms: C_3  and  C_4 
REMARK    4  A    between atoms: C_7  and  O_6 
REMARK    5  A    between atoms: C_9  and  C_10 
REMARK    6  A    between atoms: N_15  and  C_14 
REMARK    7  A    between atoms: N_20  and  C_19 
REMARK       I    between atoms: C_22  and  N_20 
ROOT
ATOM      1  C   LIG d   1      -5.821  93.596 117.867  0.00  0.00     0.161 C 
ATOM      2  C   LIG d   1      -6.444  92.440 117.368  0.00  0.00     0.016 C 
ATOM      3  C   LIG d   1      -5.772  91.209 117.188  0.00  0.00     0.038 C 
ATOM      4  C   LIG d   1      -4.459  91.009 117.640  0.00  0.00     0.028 C 
ATOM      5  C   LIG d   1      -3.633  92.289 117.688  0.00  0.00    -0.047 C 
ATOM      6  C   LIG d   1      -4.419  93.366 118.470  0.00  0.00     0.091 C 
ENDROOT
BRANCH   1   7
ATOM      7  O   LIG d   1      -6.681  94.238 118.830  0.00  0.00    -0.368 OA
BRANCH   7   8
ATOM      8  C   LIG d   1      -7.605  95.221 118.303  0.00  0.00     0.119 C 
BRANCH   8   9
ATOM      9  C   LIG d   1      -6.883  96.582 118.302  0.00  0.00     0.028 C 
ATOM     10  C   LIG d   1      -6.283  96.929 119.674  0.00  0.00     0.006 C 
ENDBRANCH   8   9
BRANCH   8  11
ATOM     11  C   LIG d   1      -8.812  95.403 119.228  0.00  0.00     0.028 C 
ATOM     12  C   LIG d   1      -8.853  94.369 120.364  0.00  0.00     0.006 C 
ENDBRANCH   8  11
ENDBRANCH   7   8
ENDBRANCH   1   7
BRANCH   6  13
ATOM     13  N   LIG d   1      -3.718  94.676 118.492  0.00  0.00    -0.311 N 
ATOM     14  C   LIG d   1      -2.919  95.063 119.484  0.00  0.00     0.210 C 
ATOM     15  C   LIG d   1      -2.312  96.460 119.318  0.00  0.00     0.109 C 
ATOM     16  O   LIG d   1      -2.629  94.370 120.471  0.00  0.00    -0.276 OA
ATOM     17  H   LIG d   1      -3.872  95.289 117.715  0.00  0.00     0.149 HD
ENDBRANCH   6  13
BRANCH   5  18
ATOM     18  N   LIG d   1      -2.334  91.959 118.306  0.00  0.00     0.381 N 
ATOM     19  H   LIG d   1      -2.476  91.343 119.082  0.00  0.00    -0.090 HD
ATOM     20  H   LIG d   1      -1.912  92.804 118.646  0.00  0.00    -0.090 HD
ATOM     21  H   LIG d   1      -1.737  91.527 117.635  0.00  0.00    -0.090 HD
ENDBRANCH   5  18
BRANCH   3  22
ATOM     22  C   LIG d   1      -6.402  90.175 116.513  0.00  0.00     0.382 C 
ATOM     23  O   LIG d   1      -7.614  89.932 116.727  0.00  0.00    -0.241 OA
ATOM     24  O   LIG d   1      -5.762  89.453 115.725  0.00  0.00    -0.241 OA
ENDBRANCH   3  22
TORSDOF 7
ENDMDL
MODEL 2
REMARK VINA RESULT:      -4.9      1.870      2.498
REMARK  7 active torsions:
REMARK  status: ('A' for Active; 'I' for Inactive)
REMARK    1  A    between atoms: C_2  and  C_3 
REMARK    2  A    between atoms: C_3  and  O_6 
REMARK    3  A    between atoms: C_3  and  C_4 
REMARK    4  A    between atoms: C_7  and  O_6 
REMARK    5  A    between atoms: C_9  and  C_10 
REMARK    6  A    between atoms: N_15  and  C_14 
REMARK    7  A    between atoms: N_20  and  C_19 
REMARK       I    between atoms: C_22  and  N_20 
ROOT
ATOM      1  C   LIG d   1      -4.337  92.861 117.416  0.00  0.00     0.161 C 
ATOM      2  C   LIG d   1      -5.569  92.274 117.083  0.00  0.00     0.016 C 
ATOM      3  C   LIG d   1      -5.714  90.909 116.742  0.00  0.00     0.038 C 
ATOM      4  C   LIG d   1      -4.653  89.999 116.859  0.00  0.00     0.028 C 
ATOM      5  C   LIG d   1      -3.280  90.645 116.705  0.00  0.00    -0.047 C 
ATOM      6  C   LIG d   1      -3.188  91.859 117.657  0.00  0.00     0.091 C 
ENDROOT
BRANCH   1   7
ATOM      7  O   LIG d   1      -4.499  93.721 118.561  0.00  0.00    -0.368 OA
BRANCH   7   8
ATOM      8  C   LIG d   1      -5.795  93.684 119.208  0.00  0.00     0.119 C 
BRANCH   8   9
ATOM      9  C   LIG d   1      -6.347  95.123 119.222  0.00  0.00     0.028 C 
ATOM     10  C   LIG d   1      -7.508  95.316 118.231  0.00  0.00     0.006 C 
ENDBRANCH   8   9
BRANCH   8  11
ATOM     11  C   LIG d   1      -5.672  93.283 120.680  0.00  0.00     0.028 C 
ATOM     12  C   LIG d   1      -5.047  91.891 120.868  0.00  0.00     0.006 C 
ENDBRANCH   8  11
ENDBRANCH   7   8
ENDBRANCH   1   7
BRANCH   6  13
ATOM     13  N   LIG d   1      -1.908  92.600 117.509  0.00  0.00    -0.311 N 
ATOM     14  C   LIG d   1      -1.112  92.902 118.533  0.00  0.00     0.210 C 
ATOM     15  C   LIG d   1       0.150  93.688 118.163  0.00  0.00     0.109 C 
ATOM     16  O   LIG d   1      -1.316  92.567 119.710  0.00  0.00    -0.276 OA
ATOM     17  H   LIG d   1      -1.649  92.884 116.584  0.00  0.00     0.149 HD
ENDBRANCH   6  13
BRANCH   5  18
ATOM     18  N   LIG d   1      -2.266  89.612 116.986  0.00  0.00     0.381 N 
ATOM     19  H   LIG d   1      -1.541  89.995 117.558  0.00  0.00    -0.090 HD
ATOM     20  H   LIG d   1      -1.859  89.312 116.117  0.00  0.00    -0.090 HD
ATOM     21  H   LIG d   1      -2.689  88.836 117.448  0.00  0.00    -0.090 HD
ENDBRANCH   5  18
BRANCH   3  22
ATOM     22  C   LIG d   1      -6.922  90.451 116.240  0.00  0.00     0.382 C 
ATOM     23  O   LIG d   1      -7.347  89.316 116.566  0.00  0.00    -0.241 OA
ATOM     24  O   LIG d   1      -7.572  91.139 115.430  0.00  0.00    -0.241 OA
ENDBRANCH   3  22
TORSDOF 7
ENDMDL
MODEL 3
REMARK VINA RESULT:      -4.8      1.991      4.927
REMARK  7 active torsions:
REMARK  status: ('A' for Active; 'I' for Inactive)
REMARK    1  A    between atoms: C_2  and  C_3 
REMARK    2  A    between atoms: C_3  and  O_6 
REMARK    3  A    between atoms: C_3  and  C_4 
REMARK    4  A    between atoms: C_7  and  O_6 
REMARK    5  A    between atoms: C_9  and  C_10 
REMARK    6  A    between atoms: N_15  and  C_14 
REMARK    7  A    between atoms: N_20  and  C_19 
REMARK       I    between atoms: C_22  and  N_20 
ROOT
ATOM      1  C   LIG d   1      -5.317  93.265 118.315  0.00  0.00     0.161 C 
ATOM      2  C   LIG d   1      -6.572  93.846 118.065  0.00  0.00     0.016 C 
ATOM      3  C   LIG d   1      -6.915  95.159 118.463  0.00  0.00     0.038 C 
ATOM      4  C   LIG d   1      -5.969  96.039 119.010  0.00  0.00     0.028 C 
ATOM      5  C   LIG d   1      -4.833  95.330 119.740  0.00  0.00    -0.047 C 
ATOM      6  C   LIG d   1      -4.237  94.249 118.811  0.00  0.00     0.091 C 
ENDROOT
BRANCH   1   7
ATOM      7  O   LIG d   1      -4.859  92.568 117.140  0.00  0.00    -0.368 OA
BRANCH   7   8
ATOM      8  C   LIG d   1      -5.033  91.129 117.144  0.00  0.00     0.119 C 
BRANCH   8   9
ATOM      9  C   LIG d   1      -3.637  90.494 116.994  0.00  0.00     0.028 C 
ATOM     10  C   LIG d   1      -3.152  89.829 118.294  0.00  0.00     0.006 C 
ENDBRANCH   8   9
BRANCH   8  11
ATOM     11  C   LIG d   1      -5.826  90.660 115.921  0.00  0.00     0.028 C 
ATOM     12  C   LIG d   1      -7.154  89.983 116.295  0.00  0.00     0.006 C 
ENDBRANCH   8  11
ENDBRANCH   7   8
ENDBRANCH   1   7
BRANCH   6  13
ATOM     13  N   LIG d   1      -3.175  93.451 119.478  0.00  0.00    -0.311 N 
ATOM     14  C   LIG d   1      -1.950  93.298 118.979  0.00  0.00     0.210 C 
ATOM     15  C   LIG d   1      -1.015  92.420 119.816  0.00  0.00     0.109 C 
ATOM     16  O   LIG d   1      -1.538  93.833 117.938  0.00  0.00    -0.276 OA
ATOM     17  H   LIG d   1      -3.413  93.008 120.344  0.00  0.00     0.149 HD
ENDBRANCH   6  13
BRANCH   5  18
ATOM     18  N   LIG d   1      -3.851  96.356 120.139  0.00  0.00     0.381 N 
ATOM     19  H   LIG d   1      -3.344  96.669 119.335  0.00  0.00    -0.090 HD
ATOM     20  H   LIG d   1      -3.199  95.948 120.784  0.00  0.00    -0.090 HD
ATOM     21  H   LIG d   1      -4.317  97.126 120.567  0.00  0.00    -0.090 HD
ENDBRANCH   5  18
BRANCH   3  22
ATOM     22  C   LIG d   1      -8.228  95.589 118.353  0.00  0.00     0.382 C 
ATOM     23  O   LIG d   1      -8.475  96.752 117.953  0.00  0.00    -0.241 OA
ATOM     24  O   LIG d   1      -9.168  94.844 118.690  0.00  0.00    -0.241 OA
ENDBRANCH   3  22
TORSDOF 7
ENDMDL
MODEL 4
REMARK VINA RESULT:      -4.8      3.289      6.544
REMARK  7 active torsions:
REMARK  status: ('A' for Active; 'I' for Inactive)
REMARK    1  A    between atoms: C_2  and  C_3 
REMARK    2  A    between atoms: C_3  and  O_6 
REMARK    3  A    between atoms: C_3  and  C_4 
REMARK    4  A    between atoms: C_7  and  O_6 
REMARK    5  A    between atoms: C_9  and  C_10 
REMARK    6  A    between atoms: N_15  and  C_14 
REMARK    7  A    between atoms: N_20  and  C_19 
REMARK       I    between atoms: C_22  and  N_20 
ROOT
ATOM      1  C   LIG d   1      -1.821  92.018 117.882  0.00  0.00     0.161 C 
ATOM      2  C   LIG d   1      -0.417  91.981 117.902  0.00  0.00     0.016 C 
ATOM      3  C   LIG d   1       0.393  93.138 117.834  0.00  0.00     0.038 C 
ATOM      4  C   LIG d   1      -0.153  94.429 117.893  0.00  0.00     0.028 C 
ATOM      5  C   LIG d   1      -1.581  94.508 117.365  0.00  0.00    -0.047 C 
ATOM      6  C   LIG d   1      -2.434  93.423 118.059  0.00  0.00     0.091 C 
ENDROOT
BRANCH   1   7
ATOM      7  O   LIG d   1      -2.348  91.113 118.873  0.00  0.00    -0.368 OA
BRANCH   7   8
ATOM      8  C   LIG d   1      -3.098  89.981 118.367  0.00  0.00     0.119 C 
BRANCH   8   9
ATOM      9  C   LIG d   1      -2.316  88.705 118.735  0.00  0.00     0.028 C 
ATOM     10  C   LIG d   1      -1.773  87.972 117.497  0.00  0.00     0.006 C 
ENDBRANCH   8   9
BRANCH   8  11
ATOM     11  C   LIG d   1      -3.160  89.992 116.837  0.00  0.00     0.028 C 
ATOM     12  C   LIG d   1      -4.594  90.118 116.299  0.00  0.00     0.006 C 
ENDBRANCH   8  11
ENDBRANCH   7   8
ENDBRANCH   1   7
BRANCH   6  13
ATOM     13  N   LIG d   1      -3.825  93.375 117.538  0.00  0.00    -0.311 N 
ATOM     14  C   LIG d   1      -4.901  93.347 118.322  0.00  0.00     0.210 C 
ATOM     15  C   LIG d   1      -6.240  93.280 117.581  0.00  0.00     0.109 C 
ATOM     16  O   LIG d   1      -4.875  93.403 119.561  0.00  0.00    -0.276 OA
ATOM     17  H   LIG d   1      -3.939  93.359 116.544  0.00  0.00     0.149 HD
ENDBRANCH   6  13
BRANCH   5  18
ATOM     18  N   LIG d   1      -2.073  95.877 117.613  0.00  0.00     0.381 N 
ATOM     19  H   LIG d   1      -1.626  96.255 118.424  0.00  0.00    -0.090 HD
ATOM     20  H   LIG d   1      -3.062  95.840 117.785  0.00  0.00    -0.090 HD
ATOM     21  H   LIG d   1      -1.887  96.454 116.822  0.00  0.00    -0.090 HD
ENDBRANCH   5  18
BRANCH   3  22
ATOM     22  C   LIG d   1       1.763  93.009 117.665  0.00  0.00     0.382 C 
ATOM     23  O   LIG d   1       2.541  93.296 118.606  0.00  0.00    -0.241 OA
ATOM     24  O   LIG d   1       2.233  92.650 116.568  0.00  0.00    -0.241 OA
ENDBRANCH   3  22
TORSDOF 7
ENDMDL
MODEL 5
REMARK VINA RESULT:      -4.8      2.959      5.792
REMARK  7 active torsions:
REMARK  status: ('A' for Active; 'I' for Inactive)
REMARK    1  A    between atoms: C_2  and  C_3 
REMARK    2  A    between atoms: C_3  and  O_6 
REMARK    3  A    between atoms: C_3  and  C_4 
REMARK    4  A    between atoms: C_7  and  O_6 
REMARK    5  A    between atoms: C_9  and  C_10 
REMARK    6  A    between atoms: N_15  and  C_14 
REMARK    7  A    between atoms: N_20  and  C_19 
REMARK       I    between atoms: C_22  and  N_20 
ROOT
ATOM      1  C   LIG d   1      -3.021  90.801 117.623  0.00  0.00     0.161 C 
ATOM      2  C   LIG d   1      -4.183  90.398 116.945  0.00  0.00     0.016 C 
ATOM      3  C   LIG d   1      -5.305  91.238 116.757  0.00  0.00     0.038 C 
ATOM      4  C   LIG d   1      -5.280  92.597 117.105  0.00  0.00     0.028 C 
ATOM      5  C   LIG d   1      -4.318  92.913 118.245  0.00  0.00    -0.047 C 
ATOM      6  C   LIG d   1      -2.932  92.314 117.912  0.00  0.00     0.091 C 
ENDROOT
BRANCH   1   7
ATOM      7  O   LIG d   1      -1.855  90.360 116.898  0.00  0.00    -0.368 OA
BRANCH   7   8
ATOM      8  C   LIG d   1      -1.006  89.404 117.578  0.00  0.00     0.119 C 
BRANCH   8   9
ATOM      9  C   LIG d   1       0.427  89.596 117.045  0.00  0.00     0.028 C 
ATOM     10  C   LIG d   1       0.560  90.844 116.156  0.00  0.00     0.006 C 
ENDBRANCH   8   9
BRANCH   8  11
ATOM     11  C   LIG d   1      -1.385  87.965 117.215  0.00  0.00     0.028 C 
ATOM     12  C   LIG d   1      -0.295  87.250 116.401  0.00  0.00     0.006 C 
ENDBRANCH   8  11
ENDBRANCH   7   8
ENDBRANCH   1   7
BRANCH   6  13
ATOM     13  N   LIG d   1      -1.953  92.505 119.013  0.00  0.00    -0.311 N 
ATOM     14  C   LIG d   1      -0.813  93.180 118.872  0.00  0.00     0.210 C 
ATOM     15  C   LIG d   1       0.063  93.240 120.128  0.00  0.00     0.109 C 
ATOM     16  O   LIG d   1      -0.459  93.762 117.835  0.00  0.00    -0.276 OA
ATOM     17  H   LIG d   1      -2.175  92.093 119.898  0.00  0.00     0.149 HD
ENDBRANCH   6  13
BRANCH   5  18
ATOM     18  N   LIG d   1      -4.290  94.378 118.411  0.00  0.00     0.381 N 
ATOM     19  H   LIG d   1      -4.997  94.798 117.841  0.00  0.00    -0.090 HD
ATOM     20  H   LIG d   1      -3.395  94.723 118.109  0.00  0.00    -0.090 HD
ATOM     21  H   LIG d   1      -4.439  94.616 119.367  0.00  0.00    -0.090 HD
ENDBRANCH   5  18
BRANCH   3  22
ATOM     22  C   LIG d   1      -6.483  90.709 116.251  0.00  0.00     0.382 C 
ATOM     23  O   LIG d   1      -6.689  89.473 116.306  0.00  0.00    -0.241 OA
ATOM     24  O   LIG d   1      -7.321  91.447 115.700  0.00  0.00    -0.241 OA
ENDBRANCH   3  22
TORSDOF 7
ENDMDL
MODEL 6
REMARK VINA RESULT:      -4.8      1.715      4.943
REMARK  7 active torsions:
REMARK  status: ('A' for Active; 'I' for Inactive)
REMARK    1  A    between atoms: C_2  and  C_3 
REMARK    2  A    between atoms: C_3  and  O_6 
REMARK    3  A    between atoms: C_3  and  C_4 
REMARK    4  A    between atoms: C_7  and  O_6 
REMARK    5  A    between atoms: C_9  and  C_10 
REMARK    6  A    between atoms: N_15  and  C_14 
REMARK    7  A    between atoms: N_20  and  C_19 
REMARK       I    between atoms: C_22  and  N_20 
ROOT
ATOM      1  C   LIG d   1      -6.135  93.565 119.478  0.00  0.00     0.161 C 
ATOM      2  C   LIG d   1      -5.358  94.420 120.278  0.00  0.00     0.016 C 
ATOM      3  C   LIG d   1      -3.995  94.697 120.024  0.00  0.00     0.038 C 
ATOM      4  C   LIG d   1      -3.353  94.253 118.858  0.00  0.00     0.028 C 
ATOM      5  C   LIG d   1      -3.955  92.975 118.284  0.00  0.00    -0.047 C 
ATOM      6  C   LIG d   1      -5.482  93.160 118.140  0.00  0.00     0.091 C 
ENDROOT
BRANCH   1   7
ATOM      7  O   LIG d   1      -7.429  94.156 119.246  0.00  0.00    -0.368 OA
BRANCH   7   8
ATOM      8  C   LIG d   1      -7.938  95.010 120.300  0.00  0.00     0.119 C 
BRANCH   8   9
ATOM      9  C   LIG d   1      -9.170  94.311 120.907  0.00  0.00     0.028 C 
ATOM     10  C   LIG d   1      -8.859  93.640 122.256  0.00  0.00     0.006 C 
ENDBRANCH   8   9
BRANCH   8  11
ATOM     11  C   LIG d   1      -8.460  96.336 119.739  0.00  0.00     0.028 C 
ATOM     12  C   LIG d   1      -8.361  96.416 118.207  0.00  0.00     0.006 C 
ENDBRANCH   8  11
ENDBRANCH   7   8
ENDBRANCH   1   7
BRANCH   6  13
ATOM     13  N   LIG d   1      -6.161  91.926 117.664  0.00  0.00    -0.311 N 
ATOM     14  C   LIG d   1      -6.327  91.631 116.376  0.00  0.00     0.210 C 
ATOM     15  C   LIG d   1      -7.070  90.320 116.104  0.00  0.00     0.109 C 
ATOM     16  O   LIG d   1      -5.900  92.315 115.434  0.00  0.00    -0.276 OA
ATOM     17  H   LIG d   1      -6.510  91.299 118.363  0.00  0.00     0.149 HD
ENDBRANCH   6  13
BRANCH   5  18
ATOM     18  N   LIG d   1      -3.281  92.702 117.000  0.00  0.00     0.381 N 
ATOM     19  H   LIG d   1      -3.265  93.533 116.444  0.00  0.00    -0.090 HD
ATOM     20  H   LIG d   1      -3.801  92.000 116.504  0.00  0.00    -0.090 HD
ATOM     21  H   LIG d   1      -2.351  92.385 117.164  0.00  0.00    -0.090 HD
ENDBRANCH   5  18
BRANCH   3  22
ATOM     22  C   LIG d   1      -3.249  95.393 120.962  0.00  0.00     0.382 C 
ATOM     23  O   LIG d   1      -3.003  96.611 120.790  0.00  0.00    -0.241 OA
ATOM     24  O   LIG d   1      -2.781  94.808 121.957  0.00  0.00    -0.241 OA
ENDBRANCH   3  22
TORSDOF 7
ENDMDL
MODEL 7
REMARK VINA RESULT:      -4.7      2.159      4.071
REMARK  7 active torsions:
REMARK  status: ('A' for Active; 'I' for Inactive)
REMARK    1  A    between atoms: C_2  and  C_3 
REMARK    2  A    between atoms: C_3  and  O_6 
REMARK    3  A    between atoms: C_3  and  C_4 
REMARK    4  A    between atoms: C_7  and  O_6 
REMARK    5  A    between atoms: C_9  and  C_10 
REMARK    6  A    between atoms: N_15  and  C_14 
REMARK    7  A    between atoms: N_20  and  C_19 
REMARK       I    between atoms: C_22  and  N_20 
ROOT
ATOM      1  C   LIG d   1      -4.852  92.799 119.347  0.00  0.00     0.161 C 
ATOM      2  C   LIG d   1      -3.838  91.950 118.875  0.00  0.00     0.016 C 
ATOM      3  C   LIG d   1      -3.846  91.369 117.586  0.00  0.00     0.038 C 
ATOM      4  C   LIG d   1      -4.801  91.721 116.620  0.00  0.00     0.028 C 
ATOM      5  C   LIG d   1      -6.125  92.184 117.218  0.00  0.00    -0.047 C 
ATOM      6  C   LIG d   1      -5.844  93.283 118.268  0.00  0.00     0.091 C 
ENDROOT
BRANCH   1   7
ATOM      7  O   LIG d   1      -4.268  93.925 120.031  0.00  0.00    -0.368 OA
BRANCH   7   8
ATOM      8  C   LIG d   1      -3.827  95.022 119.193  0.00  0.00     0.119 C 
BRANCH   8   9
ATOM      9  C   LIG d   1      -2.286  95.012 119.191  0.00  0.00     0.028 C 
ATOM     10  C   LIG d   1      -1.702  94.858 117.776  0.00  0.00     0.006 C 
ENDBRANCH   8   9
BRANCH   8  11
ATOM     11  C   LIG d   1      -4.223  96.375 119.792  0.00  0.00     0.028 C 
ATOM     12  C   LIG d   1      -5.042  96.237 121.085  0.00  0.00     0.006 C 
ENDBRANCH   8  11
ENDBRANCH   7   8
ENDBRANCH   1   7
BRANCH   6  13
ATOM     13  N   LIG d   1      -7.079  93.733 118.962  0.00  0.00    -0.311 N 
ATOM     14  C   LIG d   1      -7.616  94.940 118.795  0.00  0.00     0.210 C 
ATOM     15  C   LIG d   1      -8.878  95.207 119.621  0.00  0.00     0.109 C 
ATOM     16  O   LIG d   1      -7.185  95.804 118.017  0.00  0.00    -0.276 OA
ATOM     17  H   LIG d   1      -7.513  93.083 119.589  0.00  0.00     0.149 HD
ENDBRANCH   6  13
BRANCH   5  18
ATOM     18  N   LIG d   1      -6.977  92.650 116.107  0.00  0.00     0.381 N 
ATOM     19  H   LIG d   1      -6.600  93.493 115.722  0.00  0.00    -0.090 HD
ATOM     20  H   LIG d   1      -7.895  92.849 116.463  0.00  0.00    -0.090 HD
ATOM     21  H   LIG d   1      -7.031  91.949 115.401  0.00  0.00    -0.090 HD
ENDBRANCH   5  18
BRANCH   3  22
ATOM     22  C   LIG d   1      -2.914  90.394 117.265  0.00  0.00     0.382 C 
ATOM     23  O   LIG d   1      -3.280  89.204 117.109  0.00  0.00    -0.241 OA
ATOM     24  O   LIG d   1      -1.705  90.680 117.174  0.00  0.00    -0.241 OA
ENDBRANCH   3  22
TORSDOF 7
ENDMDL
MODEL 8
REMARK VINA RESULT:      -4.6      2.147      4.551
REMARK  7 active torsions:
REMARK  status: ('A' for Active; 'I' for Inactive)
REMARK    1  A    between atoms: C_2  and  C_3 
REMARK    2  A    between atoms: C_3  and  O_6 
REMARK    3  A    between atoms: C_3  and  C_4 
REMARK    4  A    between atoms: C_7  and  O_6 
REMARK    5  A    between atoms: C_9  and  C_10 
REMARK    6  A    between atoms: N_15  and  C_14 
REMARK    7  A    between atoms: N_20  and  C_19 
REMARK       I    between atoms: C_22  and  N_20 
ROOT
ATOM      1  C   LIG d   1      -4.066  91.965 119.054  0.00  0.00     0.161 C 
ATOM      2  C   LIG d   1      -4.612  91.026 118.162  0.00  0.00     0.016 C 
ATOM      3  C   LIG d   1      -5.672  91.321 117.274  0.00  0.00     0.038 C 
ATOM      4  C   LIG d   1      -6.160  92.626 117.110  0.00  0.00     0.028 C 
ATOM      5  C   LIG d   1      -5.984  93.499 118.348  0.00  0.00    -0.047 C 
ATOM      6  C   LIG d   1      -4.511  93.422 118.810  0.00  0.00     0.091 C 
ENDROOT
BRANCH   1   7
ATOM      7  O   LIG d   1      -2.628  91.871 119.042  0.00  0.00    -0.368 OA
BRANCH   7   8
ATOM      8  C   LIG d   1      -1.990  92.027 117.751  0.00  0.00     0.119 C 
BRANCH   8   9
ATOM      9  C   LIG d   1      -1.077  90.804 117.534  0.00  0.00     0.028 C 
ATOM     10  C   LIG d   1      -0.894  89.975 118.816  0.00  0.00     0.006 C 
ENDBRANCH   8   9
BRANCH   8  11
ATOM     11  C   LIG d   1      -1.054  93.239 117.735  0.00  0.00     0.028 C 
ATOM     12  C   LIG d   1      -0.685  93.726 119.145  0.00  0.00     0.006 C 
ENDBRANCH   8  11
ENDBRANCH   7   8
ENDBRANCH   1   7
BRANCH   6  13
ATOM     13  N   LIG d   1      -4.271  94.181 120.065  0.00  0.00    -0.311 N 
ATOM     14  C   LIG d   1      -3.819  95.434 120.089  0.00  0.00     0.210 C 
ATOM     15  C   LIG d   1      -3.622  96.023 121.489  0.00  0.00     0.109 C 
ATOM     16  O   LIG d   1      -3.593  96.123 119.084  0.00  0.00    -0.276 OA
ATOM     17  H   LIG d   1      -4.458  93.708 120.928  0.00  0.00     0.149 HD
ENDBRANCH   6  13
BRANCH   5  18
ATOM     18  N   LIG d   1      -6.408  94.866 117.992  0.00  0.00     0.381 N 
ATOM     19  H   LIG d   1      -5.933  95.529 118.572  0.00  0.00    -0.090 HD
ATOM     20  H   LIG d   1      -7.395  94.954 118.157  0.00  0.00    -0.090 HD
ATOM     21  H   LIG d   1      -6.206  95.048 117.034  0.00  0.00    -0.090 HD
ENDBRANCH   5  18
BRANCH   3  22
ATOM     22  C   LIG d   1      -6.282  90.296 116.567  0.00  0.00     0.382 C 
ATOM     23  O   LIG d   1      -7.522  90.127 116.653  0.00  0.00    -0.241 OA
ATOM     24  O   LIG d   1      -5.601  89.510 115.881  0.00  0.00    -0.241 OA
ENDBRANCH   3  22
TORSDOF 7
ENDMDL
MODEL 9
REMARK VINA RESULT:      -4.6      2.426      4.899
REMARK  7 active torsions:
REMARK  status: ('A' for Active; 'I' for Inactive)
REMARK    1  A    between atoms: C_2  and  C_3 
REMARK    2  A    between atoms: C_3  and  O_6 
REMARK    3  A    between atoms: C_3  and  C_4 
REMARK    4  A    between atoms: C_7  and  O_6 
REMARK    5  A    between atoms: C_9  and  C_10 
REMARK    6  A    between atoms: N_15  and  C_14 
REMARK    7  A    between atoms: N_20  and  C_19 
REMARK       I    between atoms: C_22  and  N_20 
ROOT
ATOM      1  C   LIG d   1      -3.222  91.915 118.120  0.00  0.00     0.161 C 
ATOM      2  C   LIG d   1      -3.808  90.915 117.326  0.00  0.00     0.016 C 
ATOM      3  C   LIG d   1      -5.102  91.024 116.766  0.00  0.00     0.038 C 
ATOM      4  C   LIG d   1      -5.843  92.213 116.838  0.00  0.00     0.028 C 
ATOM      5  C   LIG d   1      -5.502  93.066 118.055  0.00  0.00    -0.047 C 
ATOM      6  C   LIG d   1      -3.971  93.264 118.117  0.00  0.00     0.091 C 
ENDROOT
BRANCH   1   7
ATOM      7  O   LIG d   1      -1.847  92.103 117.732  0.00  0.00    -0.368 OA
BRANCH   7   8
ATOM      8  C   LIG d   1      -0.852  91.503 118.597  0.00  0.00     0.119 C 
BRANCH   8   9
ATOM      9  C   LIG d   1       0.065  92.634 119.102  0.00  0.00     0.028 C 
ATOM     10  C   LIG d   1       0.381  93.666 118.006  0.00  0.00     0.006 C 
ENDBRANCH   8   9
BRANCH   8  11
ATOM     11  C   LIG d   1       0.064  90.554 117.819  0.00  0.00     0.028 C 
ATOM     12  C   LIG d   1      -0.584  89.187 117.550  0.00  0.00     0.006 C 
ENDBRANCH   8  11
ENDBRANCH   7   8
ENDBRANCH   1   7
BRANCH   6  13
ATOM     13  N   LIG d   1      -3.544  94.018 119.325  0.00  0.00    -0.311 N 
ATOM     14  C   LIG d   1      -2.799  95.120 119.276  0.00  0.00     0.210 C 
ATOM     15  C   LIG d   1      -2.455  95.729 120.639  0.00  0.00     0.109 C 
ATOM     16  O   LIG d   1      -2.416  95.669 118.232  0.00  0.00    -0.276 OA
ATOM     17  H   LIG d   1      -3.837  93.659 120.213  0.00  0.00     0.149 HD
ENDBRANCH   6  13
BRANCH   5  18
ATOM     18  N   LIG d   1      -6.245  94.335 117.932  0.00  0.00     0.381 N 
ATOM     19  H   LIG d   1      -6.686  94.383 117.035  0.00  0.00    -0.090 HD
ATOM     20  H   LIG d   1      -5.597  95.099 118.006  0.00  0.00    -0.090 HD
ATOM     21  H   LIG d   1      -6.931  94.400 118.652  0.00  0.00    -0.090 HD
ENDBRANCH   5  18
BRANCH   3  22
ATOM     22  C   LIG d   1      -5.684  89.921 116.160  0.00  0.00     0.382 C 
ATOM     23  O   LIG d   1      -6.888  89.647 116.380  0.00  0.00    -0.241 OA
ATOM     24  O   LIG d   1      -5.007  89.171 115.430  0.00  0.00    -0.241 OA
ENDBRANCH   3  22
TORSDOF 7
ENDMDL
