MODEL 1
REMARK VINA RESULT:      -5.3      0.000      0.000
REMARK  7 active torsions:
REMARK  status: ('A' for Active; 'I' for Inactive)
REMARK    1  A    between atoms: C_2  and  C_3 
REMARK    2  A    between atoms: C_3  and  O_6 
REMARK    3  A    between atoms: C_3  and  C_4 
REMARK    4  A    between atoms: C_7  and  O_6 
REMARK    5  A    between atoms: C_9  and  C_10 
REMARK    6  A    between atoms: N_15  and  C_14 
REMARK    7  A    between atoms: N_20  and  C_19 
REMARK       I    between atoms: C_22  and  N_20 
ROOT
ATOM      1  C   LIG d   1      -4.105  91.791 118.309  0.00  0.00     0.161 C 
ATOM      2  C   LIG d   1      -4.718  91.085 117.260  0.00  0.00     0.016 C 
ATOM      3  C   LIG d   1      -6.077  91.245 116.904  0.00  0.00     0.038 C 
ATOM      4  C   LIG d   1      -6.882  92.239 117.480  0.00  0.00     0.028 C 
ATOM      5  C   LIG d   1      -6.448  92.629 118.889  0.00  0.00    -0.047 C 
ATOM      6  C   LIG d   1      -4.938  92.959 118.876  0.00  0.00     0.091 C 
ENDROOT
BRANCH   1   7
ATOM      7  O   LIG d   1      -2.807  92.257 117.891  0.00  0.00    -0.368 OA
BRANCH   7   8
ATOM      8  C   LIG d   1      -1.674  91.730 118.624  0.00  0.00     0.119 C 
BRANCH   8   9
ATOM      9  C   LIG d   1      -0.737  91.054 117.604  0.00  0.00     0.028 C 
ATOM     10  C   LIG d   1      -1.235  89.662 117.182  0.00  0.00     0.006 C 
ENDBRANCH   8   9
BRANCH   8  11
ATOM     11  C   LIG d   1      -2.101  90.615 119.583  0.00  0.00     0.028 C 
ATOM     12  C   LIG d   1      -1.782  90.937 121.052  0.00  0.00     0.006 C 
ENDBRANCH   8  11
ENDBRANCH   7   8
ENDBRANCH   1   7
BRANCH   6  13
ATOM     13  N   LIG d   1      -4.414  93.269 120.231  0.00  0.00    -0.311 N 
ATOM     14  C   LIG d   1      -3.585  94.281 120.483  0.00  0.00     0.210 C 
ATOM     15  C   LIG d   1      -3.149  94.412 121.946  0.00  0.00     0.109 C 
ATOM     16  O   LIG d   1      -3.195  95.102 119.640  0.00  0.00    -0.276 OA
ATOM     17  H   LIG d   1      -4.705  92.672 120.981  0.00  0.00     0.149 HD
ENDBRANCH   6  13
BRANCH   5  18
ATOM     18  N   LIG d   1      -7.285  93.766 119.315  0.00  0.00     0.381 N 
ATOM     19  H   LIG d   1      -8.031  93.439 119.895  0.00  0.00    -0.090 HD
ATOM     20  H   LIG d   1      -7.686  94.198 118.500  0.00  0.00    -0.090 HD
ATOM     21  H   LIG d   1      -6.733  94.429 119.813  0.00  0.00    -0.090 HD
ENDBRANCH   5  18
BRANCH   3  22
ATOM     22  C   LIG d   1      -6.654  90.377 115.990  0.00  0.00     0.382 C 
ATOM     23  O   LIG d   1      -7.735  90.684 115.431  0.00  0.00    -0.241 OA
ATOM     24  O   LIG d   1      -6.131  89.273 115.749  0.00  0.00    -0.241 OA
ENDBRANCH   3  22
TORSDOF 7
ENDMDL
MODEL 2
REMARK VINA RESULT:      -4.7      2.139      4.392
REMARK  7 active torsions:
REMARK  status: ('A' for Active; 'I' for Inactive)
REMARK    1  A    between atoms: C_2  and  C_3 
REMARK    2  A    between atoms: C_3  and  O_6 
REMARK    3  A    between atoms: C_3  and  C_4 
REMARK    4  A    between atoms: C_7  and  O_6 
REMARK    5  A    between atoms: C_9  and  C_10 
REMARK    6  A    between atoms: N_15  and  C_14 
REMARK    7  A    between atoms: N_20  and  C_19 
REMARK       I    between atoms: C_22  and  N_20 
ROOT
ATOM      1  C   LIG d   1      -5.424  92.915 119.132  0.00  0.00     0.161 C 
ATOM      2  C   LIG d   1      -6.143  92.232 118.137  0.00  0.00     0.016 C 
ATOM      3  C   LIG d   1      -5.563  91.266 117.283  0.00  0.00     0.038 C 
ATOM      4  C   LIG d   1      -4.251  90.805 117.467  0.00  0.00     0.028 C 
ATOM      5  C   LIG d   1      -3.338  91.829 118.133  0.00  0.00    -0.047 C 
ATOM      6  C   LIG d   1      -4.019  92.346 119.421  0.00  0.00     0.091 C 
ENDROOT
BRANCH   1   7
ATOM      7  O   LIG d   1      -6.200  92.972 120.345  0.00  0.00    -0.368 OA
BRANCH   7   8
ATOM      8  C   LIG d   1      -6.699  94.279 120.721  0.00  0.00     0.119 C 
BRANCH   8   9
ATOM      9  C   LIG d   1      -8.188  94.337 120.328  0.00  0.00     0.028 C 
ATOM     10  C   LIG d   1      -8.419  95.097 119.011  0.00  0.00     0.006 C 
ENDBRANCH   8   9
BRANCH   8  11
ATOM     11  C   LIG d   1      -6.023  95.389 119.911  0.00  0.00     0.028 C 
ATOM     12  C   LIG d   1      -5.292  96.411 120.795  0.00  0.00     0.006 C 
ENDBRANCH   8  11
ENDBRANCH   7   8
ENDBRANCH   1   7
BRANCH   6  13
ATOM     13  N   LIG d   1      -3.230  93.413 120.090  0.00  0.00    -0.311 N 
ATOM     14  C   LIG d   1      -2.916  93.391 121.384  0.00  0.00     0.210 C 
ATOM     15  C   LIG d   1      -2.114  94.600 121.876  0.00  0.00     0.109 C 
ATOM     16  O   LIG d   1      -3.197  92.469 122.164  0.00  0.00    -0.276 OA
ATOM     17  H   LIG d   1      -2.934  94.184 119.524  0.00  0.00     0.149 HD
ENDBRANCH   6  13
BRANCH   5  18
ATOM     18  N   LIG d   1      -2.042  91.171 118.389  0.00  0.00     0.381 N 
ATOM     19  H   LIG d   1      -1.324  91.617 117.854  0.00  0.00    -0.090 HD
ATOM     20  H   LIG d   1      -2.102  90.211 118.098  0.00  0.00    -0.090 HD
ATOM     21  H   LIG d   1      -1.822  91.218 119.359  0.00  0.00    -0.090 HD
ENDBRANCH   5  18
BRANCH   3  22
ATOM     22  C   LIG d   1      -6.287  90.779 116.205  0.00  0.00     0.382 C 
ATOM     23  O   LIG d   1      -6.149  89.585 115.845  0.00  0.00    -0.241 OA
ATOM     24  O   LIG d   1      -7.043  91.530 115.561  0.00  0.00    -0.241 OA
ENDBRANCH   3  22
TORSDOF 7
ENDMDL
MODEL 3
REMARK VINA RESULT:      -4.6      2.336      4.299
REMARK  7 active torsions:
REMARK  status: ('A' for Active; 'I' for Inactive)
REMARK    1  A    between atoms: C_2  and  C_3 
REMARK    2  A    between atoms: C_3  and  O_6 
REMARK    3  A    between atoms: C_3  and  C_4 
REMARK    4  A    between atoms: C_7  and  O_6 
REMARK    5  A    between atoms: C_9  and  C_10 
REMARK    6  A    between atoms: N_15  and  C_14 
REMARK    7  A    between atoms: N_20  and  C_19 
REMARK       I    between atoms: C_22  and  N_20 
ROOT
ATOM      1  C   LIG d   1      -5.400  92.915 119.176  0.00  0.00     0.161 C 
ATOM      2  C   LIG d   1      -6.115  92.202 118.199  0.00  0.00     0.016 C 
ATOM      3  C   LIG d   1      -5.514  91.279 117.313  0.00  0.00     0.038 C 
ATOM      4  C   LIG d   1      -4.172  90.892 117.444  0.00  0.00     0.028 C 
ATOM      5  C   LIG d   1      -3.294  91.959 118.090  0.00  0.00    -0.047 C 
ATOM      6  C   LIG d   1      -3.956  92.423 119.407  0.00  0.00     0.091 C 
ENDROOT
BRANCH   1   7
ATOM      7  O   LIG d   1      -6.134  92.915 120.416  0.00  0.00    -0.368 OA
BRANCH   7   8
ATOM      8  C   LIG d   1      -7.124  93.962 120.571  0.00  0.00     0.119 C 
BRANCH   8   9
ATOM      9  C   LIG d   1      -6.367  95.294 120.735  0.00  0.00     0.028 C 
ATOM     10  C   LIG d   1      -6.723  96.311 119.637  0.00  0.00     0.006 C 
ENDBRANCH   8   9
BRANCH   8  11
ATOM     11  C   LIG d   1      -7.922  93.787 121.866  0.00  0.00     0.028 C 
ATOM     12  C   LIG d   1      -7.449  92.586 122.700  0.00  0.00     0.006 C 
ENDBRANCH   8  11
ENDBRANCH   7   8
ENDBRANCH   1   7
BRANCH   6  13
ATOM     13  N   LIG d   1      -3.204  93.526 120.061  0.00  0.00    -0.311 N 
ATOM     14  C   LIG d   1      -2.280  93.328 120.999  0.00  0.00     0.210 C 
ATOM     15  C   LIG d   1      -1.640  94.604 121.556  0.00  0.00     0.109 C 
ATOM     16  O   LIG d   1      -1.906  92.216 121.400  0.00  0.00    -0.276 OA
ATOM     17  H   LIG d   1      -3.422  94.460 119.773  0.00  0.00     0.149 HD
ENDBRANCH   6  13
BRANCH   5  18
ATOM     18  N   LIG d   1      -1.955  91.372 118.291  0.00  0.00     0.381 N 
ATOM     19  H   LIG d   1      -1.879  90.518 117.776  0.00  0.00    -0.090 HD
ATOM     20  H   LIG d   1      -1.835  91.164 119.266  0.00  0.00    -0.090 HD
ATOM     21  H   LIG d   1      -1.254  92.013 117.991  0.00  0.00    -0.090 HD
ENDBRANCH   5  18
BRANCH   3  22
ATOM     22  C   LIG d   1      -6.248  90.764 116.256  0.00  0.00     0.382 C 
ATOM     23  O   LIG d   1      -7.124  91.468 115.699  0.00  0.00    -0.241 OA
ATOM     24  O   LIG d   1      -6.076  89.588 115.881  0.00  0.00    -0.241 OA
ENDBRANCH   3  22
TORSDOF 7
ENDMDL
MODEL 4
REMARK VINA RESULT:      -4.5      2.254      4.366
REMARK  7 active torsions:
REMARK  status: ('A' for Active; 'I' for Inactive)
REMARK    1  A    between atoms: C_2  and  C_3 
REMARK    2  A    between atoms: C_3  and  O_6 
REMARK    3  A    between atoms: C_3  and  C_4 
REMARK    4  A    between atoms: C_7  and  O_6 
REMARK    5  A    between atoms: C_9  and  C_10 
REMARK    6  A    between atoms: N_15  and  C_14 
REMARK    7  A    between atoms: N_20  and  C_19 
REMARK       I    between atoms: C_22  and  N_20 
ROOT
ATOM      1  C   LIG d   1      -4.934  92.956 120.168  0.00  0.00     0.161 C 
ATOM      2  C   LIG d   1      -3.861  92.196 119.676  0.00  0.00     0.016 C 
ATOM      3  C   LIG d   1      -3.892  91.516 118.436  0.00  0.00     0.038 C 
ATOM      4  C   LIG d   1      -4.951  91.676 117.530  0.00  0.00     0.028 C 
ATOM      5  C   LIG d   1      -6.275  92.028 118.201  0.00  0.00    -0.047 C 
ATOM      6  C   LIG d   1      -6.055  93.233 119.144  0.00  0.00     0.091 C 
ENDROOT
BRANCH   1   7
ATOM      7  O   LIG d   1      -4.444  94.194 120.720  0.00  0.00    -0.368 OA
BRANCH   7   8
ATOM      8  C   LIG d   1      -3.456  94.898 119.928  0.00  0.00     0.119 C 
BRANCH   8   9
ATOM      9  C   LIG d   1      -2.273  95.235 120.856  0.00  0.00     0.028 C 
ATOM     10  C   LIG d   1      -1.036  94.367 120.569  0.00  0.00     0.006 C 
ENDBRANCH   8   9
BRANCH   8  11
ATOM     11  C   LIG d   1      -3.990  96.250 119.445  0.00  0.00     0.028 C 
ATOM     12  C   LIG d   1      -5.217  96.725 120.240  0.00  0.00     0.006 C 
ENDBRANCH   8  11
ENDBRANCH   7   8
ENDBRANCH   1   7
BRANCH   6  13
ATOM     13  N   LIG d   1      -7.281  93.589 119.904  0.00  0.00    -0.311 N 
ATOM     14  C   LIG d   1      -8.175  94.479 119.477  0.00  0.00     0.210 C 
ATOM     15  C   LIG d   1      -9.357  94.713 120.423  0.00  0.00     0.109 C 
ATOM     16  O   LIG d   1      -8.118  95.074 118.390  0.00  0.00    -0.276 OA
ATOM     17  H   LIG d   1      -7.422  93.131 120.782  0.00  0.00     0.149 HD
ENDBRANCH   6  13
BRANCH   5  18
ATOM     18  N   LIG d   1      -7.256  92.300 117.134  0.00  0.00     0.381 N 
ATOM     19  H   LIG d   1      -6.781  92.587 116.302  0.00  0.00    -0.090 HD
ATOM     20  H   LIG d   1      -7.857  93.049 117.429  0.00  0.00    -0.090 HD
ATOM     21  H   LIG d   1      -7.797  91.483 116.951  0.00  0.00    -0.090 HD
ENDBRANCH   5  18
BRANCH   3  22
ATOM     22  C   LIG d   1      -2.873  90.634 118.110  0.00  0.00     0.382 C 
ATOM     23  O   LIG d   1      -3.147  89.456 117.777  0.00  0.00    -0.241 OA
ATOM     24  O   LIG d   1      -1.682  90.988 118.188  0.00  0.00    -0.241 OA
ENDBRANCH   3  22
TORSDOF 7
ENDMDL
MODEL 5
REMARK VINA RESULT:      -4.3      2.526      3.586
REMARK  7 active torsions:
REMARK  status: ('A' for Active; 'I' for Inactive)
REMARK    1  A    between atoms: C_2  and  C_3 
REMARK    2  A    between atoms: C_3  and  O_6 
REMARK    3  A    between atoms: C_3  and  C_4 
REMARK    4  A    between atoms: C_7  and  O_6 
REMARK    5  A    between atoms: C_9  and  C_10 
REMARK    6  A    between atoms: N_15  and  C_14 
REMARK    7  A    between atoms: N_20  and  C_19 
REMARK       I    between atoms: C_22  and  N_20 
ROOT
ATOM      1  C   LIG d   1      -5.219  93.457 120.567  0.00  0.00     0.161 C 
ATOM      2  C   LIG d   1      -6.458  93.339 119.915  0.00  0.00     0.016 C 
ATOM      3  C   LIG d   1      -7.138  94.433 119.333  0.00  0.00     0.038 C 
ATOM      4  C   LIG d   1      -6.549  95.702 119.230  0.00  0.00     0.028 C 
ATOM      5  C   LIG d   1      -5.519  95.982 120.319  0.00  0.00    -0.047 C 
ATOM      6  C   LIG d   1      -4.510  94.812 120.367  0.00  0.00     0.091 C 
ENDROOT
BRANCH   1   7
ATOM      7  O   LIG d   1      -4.354  92.375 120.169  0.00  0.00    -0.368 OA
BRANCH   7   8
ATOM      8  C   LIG d   1      -3.734  92.500 118.865  0.00  0.00     0.119 C 
BRANCH   8   9
ATOM      9  C   LIG d   1      -4.062  91.220 118.072  0.00  0.00     0.028 C 
ATOM     10  C   LIG d   1      -5.345  91.361 117.236  0.00  0.00     0.006 C 
ENDBRANCH   8   9
BRANCH   8  11
ATOM     11  C   LIG d   1      -2.207  92.530 118.975  0.00  0.00     0.028 C 
ATOM     12  C   LIG d   1      -1.693  91.950 120.302  0.00  0.00     0.006 C 
ENDBRANCH   8  11
ENDBRANCH   7   8
ENDBRANCH   1   7
BRANCH   6  13
ATOM     13  N   LIG d   1      -3.516  94.965 121.461  0.00  0.00    -0.311 N 
ATOM     14  C   LIG d   1      -2.314  95.514 121.289  0.00  0.00     0.210 C 
ATOM     15  C   LIG d   1      -1.437  95.556 122.544  0.00  0.00     0.109 C 
ATOM     16  O   LIG d   1      -1.904  95.998 120.224  0.00  0.00    -0.276 OA
ATOM     17  H   LIG d   1      -3.779  94.627 122.366  0.00  0.00     0.149 HD
ENDBRANCH   6  13
BRANCH   5  18
ATOM     18  N   LIG d   1      -4.887  97.279 120.012  0.00  0.00     0.381 N 
ATOM     19  H   LIG d   1      -5.590  97.983 119.911  0.00  0.00    -0.090 HD
ATOM     20  H   LIG d   1      -4.392  97.201 119.140  0.00  0.00    -0.090 HD
ATOM     21  H   LIG d   1      -4.255  97.531 120.739  0.00  0.00    -0.090 HD
ENDBRANCH   5  18
BRANCH   3  22
ATOM     22  C   LIG d   1      -8.439  94.272 118.882  0.00  0.00     0.382 C 
ATOM     23  O   LIG d   1      -8.654  93.952 117.688  0.00  0.00    -0.241 OA
ATOM     24  O   LIG d   1      -9.403  94.487 119.642  0.00  0.00    -0.241 OA
ENDBRANCH   3  22
TORSDOF 7
ENDMDL
MODEL 6
REMARK VINA RESULT:      -4.3      2.602      6.545
REMARK  7 active torsions:
REMARK  status: ('A' for Active; 'I' for Inactive)
REMARK    1  A    between atoms: C_2  and  C_3 
REMARK    2  A    between atoms: C_3  and  O_6 
REMARK    3  A    between atoms: C_3  and  C_4 
REMARK    4  A    between atoms: C_7  and  O_6 
REMARK    5  A    between atoms: C_9  and  C_10 
REMARK    6  A    between atoms: N_15  and  C_14 
REMARK    7  A    between atoms: N_20  and  C_19 
REMARK       I    between atoms: C_22  and  N_20 
ROOT
ATOM      1  C   LIG d   1      -6.195  92.864 119.222  0.00  0.00     0.161 C 
ATOM      2  C   LIG d   1      -5.379  93.631 120.070  0.00  0.00     0.016 C 
ATOM      3  C   LIG d   1      -3.966  93.596 120.031  0.00  0.00     0.038 C 
ATOM      4  C   LIG d   1      -3.269  92.900 119.033  0.00  0.00     0.028 C 
ATOM      5  C   LIG d   1      -4.042  91.711 118.471  0.00  0.00    -0.047 C 
ATOM      6  C   LIG d   1      -5.454  92.183 118.053  0.00  0.00     0.091 C 
ENDROOT
BRANCH   1   7
ATOM      7  O   LIG d   1      -7.280  93.673 118.725  0.00  0.00    -0.368 OA
BRANCH   7   8
ATOM      8  C   LIG d   1      -7.806  94.666 119.639  0.00  0.00     0.119 C 
BRANCH   8   9
ATOM      9  C   LIG d   1      -9.270  94.291 119.938  0.00  0.00     0.028 C 
ATOM     10  C   LIG d   1      -9.569  94.250 121.446  0.00  0.00     0.006 C 
ENDBRANCH   8   9
BRANCH   8  11
ATOM     11  C   LIG d   1      -7.867  96.049 118.984  0.00  0.00     0.028 C 
ATOM     12  C   LIG d   1      -6.583  96.866 119.195  0.00  0.00     0.006 C 
ENDBRANCH   8  11
ENDBRANCH   7   8
ENDBRANCH   1   7
BRANCH   6  13
ATOM     13  N   LIG d   1      -6.305  91.065 117.571  0.00  0.00    -0.311 N 
ATOM     14  C   LIG d   1      -6.787  90.992 116.331  0.00  0.00     0.210 C 
ATOM     15  C   LIG d   1      -7.659  89.765 116.047  0.00  0.00     0.109 C 
ATOM     16  O   LIG d   1      -6.547  91.810 115.430  0.00  0.00    -0.276 OA
ATOM     17  H   LIG d   1      -6.523  90.341 118.228  0.00  0.00     0.149 HD
ENDBRANCH   6  13
BRANCH   5  18
ATOM     18  N   LIG d   1      -3.260  91.162 117.347  0.00  0.00     0.381 N 
ATOM     19  H   LIG d   1      -3.094  91.877 116.668  0.00  0.00    -0.090 HD
ATOM     20  H   LIG d   1      -3.790  90.428 116.910  0.00  0.00    -0.090 HD
ATOM     21  H   LIG d   1      -2.392  90.802 117.680  0.00  0.00    -0.090 HD
ENDBRANCH   5  18
BRANCH   3  22
ATOM     22  C   LIG d   1      -3.235  94.232 121.023  0.00  0.00     0.382 C 
ATOM     23  O   LIG d   1      -2.008  94.436 120.865  0.00  0.00    -0.241 OA
ATOM     24  O   LIG d   1      -3.779  94.564 122.094  0.00  0.00    -0.241 OA
ENDBRANCH   3  22
TORSDOF 7
ENDMDL
MODEL 7
REMARK VINA RESULT:      -4.3      2.820      4.188
REMARK  7 active torsions:
REMARK  status: ('A' for Active; 'I' for Inactive)
REMARK    1  A    between atoms: C_2  and  C_3 
REMARK    2  A    between atoms: C_3  and  O_6 
REMARK    3  A    between atoms: C_3  and  C_4 
REMARK    4  A    between atoms: C_7  and  O_6 
REMARK    5  A    between atoms: C_9  and  C_10 
REMARK    6  A    between atoms: N_15  and  C_14 
REMARK    7  A    between atoms: N_20  and  C_19 
REMARK       I    between atoms: C_22  and  N_20 
ROOT
ATOM      1  C   LIG d   1      -1.180  90.859 118.288  0.00  0.00     0.161 C 
ATOM      2  C   LIG d   1      -2.482  90.720 117.780  0.00  0.00     0.016 C 
ATOM      3  C   LIG d   1      -3.532  91.622 118.070  0.00  0.00     0.038 C 
ATOM      4  C   LIG d   1      -3.310  92.816 118.771  0.00  0.00     0.028 C 
ATOM      5  C   LIG d   1      -2.126  92.745 119.730  0.00  0.00    -0.047 C 
ATOM      6  C   LIG d   1      -0.892  92.216 118.965  0.00  0.00     0.091 C 
ENDROOT
BRANCH   1   7
ATOM      7  O   LIG d   1      -0.218  90.605 117.245  0.00  0.00    -0.368 OA
BRANCH   7   8
ATOM      8  C   LIG d   1       0.406  89.297 117.259  0.00  0.00     0.119 C 
BRANCH   8   9
ATOM      9  C   LIG d   1       1.861  89.484 117.732  0.00  0.00     0.028 C 
ATOM     10  C   LIG d   1       2.073  89.008 119.179  0.00  0.00     0.006 C 
ENDBRANCH   8   9
BRANCH   8  11
ATOM     11  C   LIG d   1       0.510  88.715 115.847  0.00  0.00     0.028 C 
ATOM     12  C   LIG d   1       0.568  87.179 115.838  0.00  0.00     0.006 C 
ENDBRANCH   8  11
ENDBRANCH   7   8
ENDBRANCH   1   7
BRANCH   6  13
ATOM     13  N   LIG d   1       0.289  92.035 119.849  0.00  0.00    -0.311 N 
ATOM     14  C   LIG d   1       1.262  92.937 119.965  0.00  0.00     0.210 C 
ATOM     15  C   LIG d   1       2.397  92.545 120.916  0.00  0.00     0.109 C 
ATOM     16  O   LIG d   1       1.277  94.039 119.396  0.00  0.00    -0.276 OA
ATOM     17  H   LIG d   1       0.342  91.183 120.371  0.00  0.00     0.149 HD
ENDBRANCH   6  13
BRANCH   5  18
ATOM     18  N   LIG d   1      -1.925  94.094 120.290  0.00  0.00     0.381 N 
ATOM     19  H   LIG d   1      -2.131  94.784 119.596  0.00  0.00    -0.090 HD
ATOM     20  H   LIG d   1      -0.961  94.195 120.558  0.00  0.00    -0.090 HD
ATOM     21  H   LIG d   1      -2.513  94.225 121.084  0.00  0.00    -0.090 HD
ENDBRANCH   5  18
BRANCH   3  22
ATOM     22  C   LIG d   1      -4.829  91.312 117.690  0.00  0.00     0.382 C 
ATOM     23  O   LIG d   1      -5.788  91.996 118.120  0.00  0.00    -0.241 OA
ATOM     24  O   LIG d   1      -5.055  90.330 116.958  0.00  0.00    -0.241 OA
ENDBRANCH   3  22
TORSDOF 7
ENDMDL
MODEL 8
REMARK VINA RESULT:      -4.2      3.689      5.765
REMARK  7 active torsions:
REMARK  status: ('A' for Active; 'I' for Inactive)
REMARK    1  A    between atoms: C_2  and  C_3 
REMARK    2  A    between atoms: C_3  and  O_6 
REMARK    3  A    between atoms: C_3  and  C_4 
REMARK    4  A    between atoms: C_7  and  O_6 
REMARK    5  A    between atoms: C_9  and  C_10 
REMARK    6  A    between atoms: N_15  and  C_14 
REMARK    7  A    between atoms: N_20  and  C_19 
REMARK       I    between atoms: C_22  and  N_20 
ROOT
ATOM      1  C   LIG d   1       0.176  90.321 117.847  0.00  0.00     0.161 C 
ATOM      2  C   LIG d   1      -1.217  90.218 117.703  0.00  0.00     0.016 C 
ATOM      3  C   LIG d   1      -2.123  91.189 118.186  0.00  0.00     0.038 C 
ATOM      4  C   LIG d   1      -1.686  92.412 118.717  0.00  0.00     0.028 C 
ATOM      5  C   LIG d   1      -0.296  92.339 119.341  0.00  0.00    -0.047 C 
ATOM      6  C   LIG d   1       0.677  91.700 118.324  0.00  0.00     0.091 C 
ENDROOT
BRANCH   1   7
ATOM      7  O   LIG d   1       0.824  89.953 116.613  0.00  0.00    -0.368 OA
BRANCH   7   8
ATOM      8  C   LIG d   1       1.506  88.675 116.607  0.00  0.00     0.119 C 
BRANCH   8   9
ATOM      9  C   LIG d   1       2.951  88.924 116.134  0.00  0.00     0.028 C 
ATOM     10  C   LIG d   1       3.996  88.400 117.134  0.00  0.00     0.006 C 
ENDBRANCH   8   9
BRANCH   8  11
ATOM     11  C   LIG d   1       0.899  87.722 115.573  0.00  0.00     0.028 C 
ATOM     12  C   LIG d   1       0.512  86.361 116.172  0.00  0.00     0.006 C 
ENDBRANCH   8  11
ENDBRANCH   7   8
ENDBRANCH   1   7
BRANCH   6  13
ATOM     13  N   LIG d   1       2.041  91.514 118.885  0.00  0.00    -0.311 N 
ATOM     14  C   LIG d   1       3.147  91.937 118.276  0.00  0.00     0.210 C 
ATOM     15  C   LIG d   1       4.452  91.626 119.017  0.00  0.00     0.109 C 
ATOM     16  O   LIG d   1       3.170  92.570 117.210  0.00  0.00    -0.276 OA
ATOM     17  H   LIG d   1       2.112  91.038 119.763  0.00  0.00     0.149 HD
ENDBRANCH   6  13
BRANCH   5  18
ATOM     18  N   LIG d   1       0.090  93.708 119.730  0.00  0.00     0.381 N 
ATOM     19  H   LIG d   1      -0.342  94.369 119.115  0.00  0.00    -0.090 HD
ATOM     20  H   LIG d   1       1.087  93.802 119.642  0.00  0.00    -0.090 HD
ATOM     21  H   LIG d   1      -0.187  93.887 120.670  0.00  0.00    -0.090 HD
ENDBRANCH   5  18
BRANCH   3  22
ATOM     22  C   LIG d   1      -3.484  90.924 118.178  0.00  0.00     0.382 C 
ATOM     23  O   LIG d   1      -3.914  89.867 117.655  0.00  0.00    -0.241 OA
ATOM     24  O   LIG d   1      -4.292  91.749 118.646  0.00  0.00    -0.241 OA
ENDBRANCH   3  22
TORSDOF 7
ENDMDL
MODEL 9
REMARK VINA RESULT:      -4.1      4.728      8.184
REMARK  7 active torsions:
REMARK  status: ('A' for Active; 'I' for Inactive)
REMARK    1  A    between atoms: C_2  and  C_3 
REMARK    2  A    between atoms: C_3  and  O_6 
REMARK    3  A    between atoms: C_3  and  C_4 
REMARK    4  A    between atoms: C_7  and  O_6 
REMARK    5  A    between atoms: C_9  and  C_10 
REMARK    6  A    between atoms: N_15  and  C_14 
REMARK    7  A    between atoms: N_20  and  C_19 
REMARK       I    between atoms: C_22  and  N_20 
ROOT
ATOM      1  C   LIG d   1       1.114  90.403 119.382  0.00  0.00     0.161 C 
ATOM      2  C   LIG d   1       1.681  91.533 119.995  0.00  0.00     0.016 C 
ATOM      3  C   LIG d   1       2.747  92.271 119.431  0.00  0.00     0.038 C 
ATOM      4  C   LIG d   1       3.220  92.017 118.135  0.00  0.00     0.028 C 
ATOM      5  C   LIG d   1       3.019  90.573 117.688  0.00  0.00    -0.047 C 
ATOM      6  C   LIG d   1       1.542  90.179 117.917  0.00  0.00     0.091 C 
ENDROOT
BRANCH   1   7
ATOM      7  O   LIG d   1      -0.323  90.465 119.480  0.00  0.00    -0.368 OA
BRANCH   7   8
ATOM      8  C   LIG d   1      -0.947  91.666 118.962  0.00  0.00     0.119 C 
BRANCH   8   9
ATOM      9  C   LIG d   1      -1.947  92.162 120.023  0.00  0.00     0.028 C 
ATOM     10  C   LIG d   1      -2.043  91.213 121.230  0.00  0.00     0.006 C 
ENDBRANCH   8   9
BRANCH   8  11
ATOM     11  C   LIG d   1      -1.789  91.364 117.719  0.00  0.00     0.028 C 
ATOM     12  C   LIG d   1      -2.426  89.966 117.756  0.00  0.00     0.006 C 
ENDBRANCH   8  11
ENDBRANCH   7   8
ENDBRANCH   1   7
BRANCH   6  13
ATOM     13  N   LIG d   1       1.278  88.754 117.585  0.00  0.00    -0.311 N 
ATOM     14  C   LIG d   1       0.743  88.358 116.431  0.00  0.00     0.210 C 
ATOM     15  C   LIG d   1       0.537  86.845 116.300  0.00  0.00     0.109 C 
ATOM     16  O   LIG d   1       0.449  89.112 115.492  0.00  0.00    -0.276 OA
ATOM     17  H   LIG d   1       1.516  88.072 118.278  0.00  0.00     0.149 HD
ENDBRANCH   6  13
BRANCH   5  18
ATOM     18  N   LIG d   1       3.430  90.483 116.274  0.00  0.00     0.381 N 
ATOM     19  H   LIG d   1       3.273  89.555 115.935  0.00  0.00    -0.090 HD
ATOM     20  H   LIG d   1       4.412  90.681 116.208  0.00  0.00    -0.090 HD
ATOM     21  H   LIG d   1       2.914  91.136 115.727  0.00  0.00    -0.090 HD
ENDBRANCH   5  18
BRANCH   3  22
ATOM     22  C   LIG d   1       3.378  93.250 120.183  0.00  0.00     0.382 C 
ATOM     23  O   LIG d   1       4.613  93.434 120.064  0.00  0.00    -0.241 OA
ATOM     24  O   LIG d   1       2.735  93.923 121.011  0.00  0.00    -0.241 OA
ENDBRANCH   3  22
TORSDOF 7
ENDMDL
