MODEL 1
REMARK VINA RESULT:      -4.7      0.000      0.000
REMARK  7 active torsions:
REMARK  status: ('A' for Active; 'I' for Inactive)
REMARK    1  A    between atoms: C_2  and  C_3 
REMARK    2  A    between atoms: C_3  and  O_6 
REMARK    3  A    between atoms: C_3  and  C_4 
REMARK    4  A    between atoms: C_7  and  O_6 
REMARK    5  A    between atoms: C_9  and  C_10 
REMARK    6  A    between atoms: N_15  and  C_14 
REMARK    7  A    between atoms: N_20  and  C_19 
REMARK       I    between atoms: C_22  and  N_20 
ROOT
ATOM      1  C   LIG d   1      -4.763  93.186 119.401  0.00  0.00     0.161 C 
ATOM      2  C   LIG d   1      -3.855  92.207 118.964  0.00  0.00     0.016 C 
ATOM      3  C   LIG d   1      -3.988  91.512 117.740  0.00  0.00     0.038 C 
ATOM      4  C   LIG d   1      -4.963  91.859 116.793  0.00  0.00     0.028 C 
ATOM      5  C   LIG d   1      -6.206  92.495 117.408  0.00  0.00    -0.047 C 
ATOM      6  C   LIG d   1      -5.771  93.656 118.331  0.00  0.00     0.091 C 
ENDROOT
BRANCH   1   7
ATOM      7  O   LIG d   1      -4.045  94.312 119.942  0.00  0.00    -0.368 OA
BRANCH   7   8
ATOM      8  C   LIG d   1      -3.511  95.251 118.977  0.00  0.00     0.119 C 
BRANCH   8   9
ATOM      9  C   LIG d   1      -1.976  95.120 119.004  0.00  0.00     0.028 C 
ATOM     10  C   LIG d   1      -1.394  94.749 117.630  0.00  0.00     0.006 C 
ENDBRANCH   8   9
BRANCH   8  11
ATOM     11  C   LIG d   1      -3.802  96.698 119.386  0.00  0.00     0.028 C 
ATOM     12  C   LIG d   1      -4.538  96.800 120.732  0.00  0.00     0.006 C 
ENDBRANCH   8  11
ENDBRANCH   7   8
ENDBRANCH   1   7
BRANCH   6  13
ATOM     13  N   LIG d   1      -6.920  94.279 119.038  0.00  0.00    -0.311 N 
ATOM     14  C   LIG d   1      -7.383  95.495 118.754  0.00  0.00     0.210 C 
ATOM     15  C   LIG d   1      -8.563  95.955 119.616  0.00  0.00     0.109 C 
ATOM     16  O   LIG d   1      -6.950  96.224 117.849  0.00  0.00    -0.276 OA
ATOM     17  H   LIG d   1      -7.351  93.745 119.766  0.00  0.00     0.149 HD
ENDBRANCH   6  13
BRANCH   5  18
ATOM     18  N   LIG d   1      -7.077  92.931 116.301  0.00  0.00     0.381 N 
ATOM     19  H   LIG d   1      -6.932  92.345 115.504  0.00  0.00    -0.090 HD
ATOM     20  H   LIG d   1      -6.834  93.873 116.048  0.00  0.00    -0.090 HD
ATOM     21  H   LIG d   1      -8.032  92.891 116.582  0.00  0.00    -0.090 HD
ENDBRANCH   5  18
BRANCH   3  22
ATOM     22  C   LIG d   1      -3.164  90.430 117.471  0.00  0.00     0.382 C 
ATOM     23  O   LIG d   1      -3.493  89.595 116.595  0.00  0.00    -0.241 OA
ATOM     24  O   LIG d   1      -2.118  90.255 118.124  0.00  0.00    -0.241 OA
ENDBRANCH   3  22
TORSDOF 7
ENDMDL
MODEL 2
REMARK VINA RESULT:      -4.7      2.238      4.414
REMARK  7 active torsions:
REMARK  status: ('A' for Active; 'I' for Inactive)
REMARK    1  A    between atoms: C_2  and  C_3 
REMARK    2  A    between atoms: C_3  and  O_6 
REMARK    3  A    between atoms: C_3  and  C_4 
REMARK    4  A    between atoms: C_7  and  O_6 
REMARK    5  A    between atoms: C_9  and  C_10 
REMARK    6  A    between atoms: N_15  and  C_14 
REMARK    7  A    between atoms: N_20  and  C_19 
REMARK       I    between atoms: C_22  and  N_20 
ROOT
ATOM      1  C   LIG d   1      -5.827  93.855 118.082  0.00  0.00     0.161 C 
ATOM      2  C   LIG d   1      -6.600  92.927 117.364  0.00  0.00     0.016 C 
ATOM      3  C   LIG d   1      -6.077  91.726 116.832  0.00  0.00     0.038 C 
ATOM      4  C   LIG d   1      -4.773  91.295 117.115  0.00  0.00     0.028 C 
ATOM      5  C   LIG d   1      -3.809  92.439 117.412  0.00  0.00    -0.047 C 
ATOM      6  C   LIG d   1      -4.429  93.350 118.496  0.00  0.00     0.091 C 
ENDROOT
BRANCH   1   7
ATOM      7  O   LIG d   1      -6.559  94.308 119.238  0.00  0.00    -0.368 OA
BRANCH   7   8
ATOM      8  C   LIG d   1      -6.833  95.730 119.302  0.00  0.00     0.119 C 
BRANCH   8   9
ATOM      9  C   LIG d   1      -8.114  95.917 120.138  0.00  0.00     0.028 C 
ATOM     10  C   LIG d   1      -8.263  94.845 121.232  0.00  0.00     0.006 C 
ENDBRANCH   8   9
BRANCH   8  11
ATOM     11  C   LIG d   1      -7.166  96.295 117.918  0.00  0.00     0.028 C 
ATOM     12  C   LIG d   1      -8.665  96.214 117.586  0.00  0.00     0.006 C 
ENDBRANCH   8  11
ENDBRANCH   7   8
ENDBRANCH   1   7
BRANCH   6  13
ATOM     13  N   LIG d   1      -3.588  94.540 118.785  0.00  0.00    -0.311 N 
ATOM     14  C   LIG d   1      -2.687  94.580 119.765  0.00  0.00     0.210 C 
ATOM     15  C   LIG d   1      -1.942  95.912 119.904  0.00  0.00     0.109 C 
ATOM     16  O   LIG d   1      -2.410  93.629 120.511  0.00  0.00    -0.276 OA
ATOM     17  H   LIG d   1      -3.725  95.347 118.208  0.00  0.00     0.149 HD
ENDBRANCH   6  13
BRANCH   5  18
ATOM     18  N   LIG d   1      -2.524  91.843 117.824  0.00  0.00     0.381 N 
ATOM     19  H   LIG d   1      -2.659  91.274 118.636  0.00  0.00    -0.090 HD
ATOM     20  H   LIG d   1      -1.884  92.581 118.059  0.00  0.00    -0.090 HD
ATOM     21  H   LIG d   1      -2.150  91.293 117.083  0.00  0.00    -0.090 HD
ENDBRANCH   5  18
BRANCH   3  22
ATOM     22  C   LIG d   1      -6.852  90.960 115.974  0.00  0.00     0.382 C 
ATOM     23  O   LIG d   1      -8.013  91.332 115.676  0.00  0.00    -0.241 OA
ATOM     24  O   LIG d   1      -6.422  89.879 115.529  0.00  0.00    -0.241 OA
ENDBRANCH   3  22
TORSDOF 7
ENDMDL
MODEL 3
REMARK VINA RESULT:      -4.4      1.823      2.946
REMARK  7 active torsions:
REMARK  status: ('A' for Active; 'I' for Inactive)
REMARK    1  A    between atoms: C_2  and  C_3 
REMARK    2  A    between atoms: C_3  and  O_6 
REMARK    3  A    between atoms: C_3  and  C_4 
REMARK    4  A    between atoms: C_7  and  O_6 
REMARK    5  A    between atoms: C_9  and  C_10 
REMARK    6  A    between atoms: N_15  and  C_14 
REMARK    7  A    between atoms: N_20  and  C_19 
REMARK       I    between atoms: C_22  and  N_20 
ROOT
ATOM      1  C   LIG d   1      -4.217  92.630 118.685  0.00  0.00     0.161 C 
ATOM      2  C   LIG d   1      -4.234  91.612 117.718  0.00  0.00     0.016 C 
ATOM      3  C   LIG d   1      -5.177  91.552 116.666  0.00  0.00     0.038 C 
ATOM      4  C   LIG d   1      -6.081  92.597 116.421  0.00  0.00     0.028 C 
ATOM      5  C   LIG d   1      -6.432  93.399 117.670  0.00  0.00    -0.047 C 
ATOM      6  C   LIG d   1      -5.125  93.837 118.369  0.00  0.00     0.091 C 
ENDROOT
BRANCH   1   7
ATOM      7  O   LIG d   1      -2.863  93.068 118.911  0.00  0.00    -0.368 OA
BRANCH   7   8
ATOM      8  C   LIG d   1      -1.821  92.121 118.565  0.00  0.00     0.119 C 
BRANCH   8   9
ATOM      9  C   LIG d   1      -1.237  91.574 119.882  0.00  0.00     0.028 C 
ATOM     10  C   LIG d   1       0.018  92.341 120.331  0.00  0.00     0.006 C 
ENDBRANCH   8   9
BRANCH   8  11
ATOM     11  C   LIG d   1      -0.651  92.814 117.860  0.00  0.00     0.028 C 
ATOM     12  C   LIG d   1      -1.043  94.166 117.244  0.00  0.00     0.006 C 
ENDBRANCH   8  11
ENDBRANCH   7   8
ENDBRANCH   1   7
BRANCH   6  13
ATOM     13  N   LIG d   1      -5.378  94.555 119.646  0.00  0.00    -0.311 N 
ATOM     14  C   LIG d   1      -5.404  95.883 119.747  0.00  0.00     0.210 C 
ATOM     15  C   LIG d   1      -5.662  96.419 121.158  0.00  0.00     0.109 C 
ATOM     16  O   LIG d   1      -5.269  96.668 118.796  0.00  0.00    -0.276 OA
ATOM     17  H   LIG d   1      -5.529  93.996 120.462  0.00  0.00     0.149 HD
ENDBRANCH   6  13
BRANCH   5  18
ATOM     18  N   LIG d   1      -7.271  94.537 117.247  0.00  0.00     0.381 N 
ATOM     19  H   LIG d   1      -6.769  95.393 117.373  0.00  0.00    -0.090 HD
ATOM     20  H   LIG d   1      -8.094  94.566 117.823  0.00  0.00    -0.090 HD
ATOM     21  H   LIG d   1      -7.529  94.433 116.291  0.00  0.00    -0.090 HD
ENDBRANCH   5  18
BRANCH   3  22
ATOM     22  C   LIG d   1      -5.249  90.419 115.870  0.00  0.00     0.382 C 
ATOM     23  O   LIG d   1      -4.200  89.810 115.552  0.00  0.00    -0.241 OA
ATOM     24  O   LIG d   1      -6.345  90.025 115.430  0.00  0.00    -0.241 OA
ENDBRANCH   3  22
TORSDOF 7
ENDMDL
MODEL 4
REMARK VINA RESULT:      -4.3      2.177      4.376
REMARK  7 active torsions:
REMARK  status: ('A' for Active; 'I' for Inactive)
REMARK    1  A    between atoms: C_2  and  C_3 
REMARK    2  A    between atoms: C_3  and  O_6 
REMARK    3  A    between atoms: C_3  and  C_4 
REMARK    4  A    between atoms: C_7  and  O_6 
REMARK    5  A    between atoms: C_9  and  C_10 
REMARK    6  A    between atoms: N_15  and  C_14 
REMARK    7  A    between atoms: N_20  and  C_19 
REMARK       I    between atoms: C_22  and  N_20 
ROOT
ATOM      1  C   LIG d   1      -3.895  91.890 118.128  0.00  0.00     0.161 C 
ATOM      2  C   LIG d   1      -4.646  91.258 117.122  0.00  0.00     0.016 C 
ATOM      3  C   LIG d   1      -5.886  91.750 116.653  0.00  0.00     0.038 C 
ATOM      4  C   LIG d   1      -6.390  92.996 117.054  0.00  0.00     0.028 C 
ATOM      5  C   LIG d   1      -5.915  93.424 118.438  0.00  0.00    -0.047 C 
ATOM      6  C   LIG d   1      -4.375  93.309 118.498  0.00  0.00     0.091 C 
ENDROOT
BRANCH   1   7
ATOM      7  O   LIG d   1      -2.503  91.912 117.756  0.00  0.00    -0.368 OA
BRANCH   7   8
ATOM      8  C   LIG d   1      -1.652  90.941 118.414  0.00  0.00     0.119 C 
BRANCH   8   9
ATOM      9  C   LIG d   1      -0.221  91.512 118.427  0.00  0.00     0.028 C 
ATOM     10  C   LIG d   1      -0.203  93.050 118.391  0.00  0.00     0.006 C 
ENDBRANCH   8   9
BRANCH   8  11
ATOM     11  C   LIG d   1      -1.563  89.642 117.607  0.00  0.00     0.028 C 
ATOM     12  C   LIG d   1      -2.209  88.448 118.327  0.00  0.00     0.006 C 
ENDBRANCH   8  11
ENDBRANCH   7   8
ENDBRANCH   1   7
BRANCH   6  13
ATOM     13  N   LIG d   1      -3.834  93.629 119.845  0.00  0.00    -0.311 N 
ATOM     14  C   LIG d   1      -3.023  94.658 120.084  0.00  0.00     0.210 C 
ATOM     15  C   LIG d   1      -2.566  94.797 121.540  0.00  0.00     0.109 C 
ATOM     16  O   LIG d   1      -2.665  95.489 119.235  0.00  0.00    -0.276 OA
ATOM     17  H   LIG d   1      -4.099  93.025 120.598  0.00  0.00     0.149 HD
ENDBRANCH   6  13
BRANCH   5  18
ATOM     18  N   LIG d   1      -6.402  94.797 118.671  0.00  0.00     0.381 N 
ATOM     19  H   LIG d   1      -5.679  95.346 119.093  0.00  0.00    -0.090 HD
ATOM     20  H   LIG d   1      -7.181  94.763 119.304  0.00  0.00    -0.090 HD
ATOM     21  H   LIG d   1      -6.682  95.211 117.809  0.00  0.00    -0.090 HD
ENDBRANCH   5  18
BRANCH   3  22
ATOM     22  C   LIG d   1      -6.656  90.971 115.802  0.00  0.00     0.382 C 
ATOM     23  O   LIG d   1      -7.784  91.376 115.430  0.00  0.00    -0.241 OA
ATOM     24  O   LIG d   1      -6.255  89.850 115.436  0.00  0.00    -0.241 OA
ENDBRANCH   3  22
TORSDOF 7
ENDMDL
MODEL 5
REMARK VINA RESULT:      -4.2      1.558      2.224
REMARK  7 active torsions:
REMARK  status: ('A' for Active; 'I' for Inactive)
REMARK    1  A    between atoms: C_2  and  C_3 
REMARK    2  A    between atoms: C_3  and  O_6 
REMARK    3  A    between atoms: C_3  and  C_4 
REMARK    4  A    between atoms: C_7  and  O_6 
REMARK    5  A    between atoms: C_9  and  C_10 
REMARK    6  A    between atoms: N_15  and  C_14 
REMARK    7  A    between atoms: N_20  and  C_19 
REMARK       I    between atoms: C_22  and  N_20 
ROOT
ATOM      1  C   LIG d   1      -3.250  93.230 119.282  0.00  0.00     0.161 C 
ATOM      2  C   LIG d   1      -2.994  92.053 118.561  0.00  0.00     0.016 C 
ATOM      3  C   LIG d   1      -3.885  91.519 117.601  0.00  0.00     0.038 C 
ATOM      4  C   LIG d   1      -5.031  92.213 117.186  0.00  0.00     0.028 C 
ATOM      5  C   LIG d   1      -5.586  93.156 118.249  0.00  0.00    -0.047 C 
ATOM      6  C   LIG d   1      -4.443  94.060 118.763  0.00  0.00     0.091 C 
ENDROOT
BRANCH   1   7
ATOM      7  O   LIG d   1      -2.060  94.041 119.333  0.00  0.00    -0.368 OA
BRANCH   7   8
ATOM      8  C   LIG d   1      -1.503  94.436 118.055  0.00  0.00     0.119 C 
BRANCH   8   9
ATOM      9  C   LIG d   1       0.013  94.162 118.106  0.00  0.00     0.028 C 
ATOM     10  C   LIG d   1       0.421  92.957 117.241  0.00  0.00     0.006 C 
ENDBRANCH   8   9
BRANCH   8  11
ATOM     11  C   LIG d   1      -1.635  95.945 117.831  0.00  0.00     0.028 C 
ATOM     12  C   LIG d   1      -0.290  96.682 117.931  0.00  0.00     0.006 C 
ENDBRANCH   8  11
ENDBRANCH   7   8
ENDBRANCH   1   7
BRANCH   6  13
ATOM     13  N   LIG d   1      -4.881  94.956 119.866  0.00  0.00    -0.311 N 
ATOM     14  C   LIG d   1      -5.051  96.269 119.720  0.00  0.00     0.210 C 
ATOM     15  C   LIG d   1      -5.488  97.009 120.988  0.00  0.00     0.109 C 
ATOM     16  O   LIG d   1      -4.913  96.886 118.653  0.00  0.00    -0.276 OA
ATOM     17  H   LIG d   1      -5.047  94.533 120.758  0.00  0.00     0.149 HD
ENDBRANCH   6  13
BRANCH   5  18
ATOM     18  N   LIG d   1      -6.693  93.915 117.637  0.00  0.00     0.381 N 
ATOM     19  H   LIG d   1      -7.324  93.286 117.181  0.00  0.00    -0.090 HD
ATOM     20  H   LIG d   1      -6.316  94.539 116.946  0.00  0.00    -0.090 HD
ATOM     21  H   LIG d   1      -7.177  94.434 118.336  0.00  0.00    -0.090 HD
ENDBRANCH   5  18
BRANCH   3  22
ATOM     22  C   LIG d   1      -3.652  90.257 117.074  0.00  0.00     0.382 C 
ATOM     23  O   LIG d   1      -4.127  89.948 115.955  0.00  0.00    -0.241 OA
ATOM     24  O   LIG d   1      -3.012  89.410 117.724  0.00  0.00    -0.241 OA
ENDBRANCH   3  22
TORSDOF 7
ENDMDL
MODEL 6
REMARK VINA RESULT:      -4.2      4.669      7.319
REMARK  7 active torsions:
REMARK  status: ('A' for Active; 'I' for Inactive)
REMARK    1  A    between atoms: C_2  and  C_3 
REMARK    2  A    between atoms: C_3  and  O_6 
REMARK    3  A    between atoms: C_3  and  C_4 
REMARK    4  A    between atoms: C_7  and  O_6 
REMARK    5  A    between atoms: C_9  and  C_10 
REMARK    6  A    between atoms: N_15  and  C_14 
REMARK    7  A    between atoms: N_20  and  C_19 
REMARK       I    between atoms: C_22  and  N_20 
ROOT
ATOM      1  C   LIG d   1       0.550  91.106 116.716  0.00  0.00     0.161 C 
ATOM      2  C   LIG d   1       1.945  91.076 116.557  0.00  0.00     0.016 C 
ATOM      3  C   LIG d   1       2.831  91.894 117.296  0.00  0.00     0.038 C 
ATOM      4  C   LIG d   1       2.387  92.694 118.359  0.00  0.00     0.028 C 
ATOM      5  C   LIG d   1       0.934  93.135 118.220  0.00  0.00    -0.047 C 
ATOM      6  C   LIG d   1       0.056  91.892 117.948  0.00  0.00     0.091 C 
ENDROOT
BRANCH   1   7
ATOM      7  O   LIG d   1       0.032  89.761 116.739  0.00  0.00    -0.368 OA
BRANCH   7   8
ATOM      8  C   LIG d   1       0.166  89.048 117.993  0.00  0.00     0.119 C 
BRANCH   8   9
ATOM      9  C   LIG d   1       1.050  87.813 117.731  0.00  0.00     0.028 C 
ATOM     10  C   LIG d   1       0.904  87.281 116.295  0.00  0.00     0.006 C 
ENDBRANCH   8   9
BRANCH   8  11
ATOM     11  C   LIG d   1      -1.180  88.491 118.464  0.00  0.00     0.028 C 
ATOM     12  C   LIG d   1      -2.313  88.736 117.454  0.00  0.00     0.006 C 
ENDBRANCH   8  11
ENDBRANCH   7   8
ENDBRANCH   1   7
BRANCH   6  13
ATOM     13  N   LIG d   1      -1.369  92.245 117.716  0.00  0.00    -0.311 N 
ATOM     14  C   LIG d   1      -2.299  92.200 118.668  0.00  0.00     0.210 C 
ATOM     15  C   LIG d   1      -3.710  92.584 118.211  0.00  0.00     0.109 C 
ATOM     16  O   LIG d   1      -2.084  91.911 119.854  0.00  0.00    -0.276 OA
ATOM     17  H   LIG d   1      -1.625  92.521 116.788  0.00  0.00     0.149 HD
ENDBRANCH   6  13
BRANCH   5  18
ATOM     18  N   LIG d   1       0.563  93.845 119.459  0.00  0.00     0.381 N 
ATOM     19  H   LIG d   1       1.388  94.177 119.919  0.00  0.00    -0.090 HD
ATOM     20  H   LIG d   1       0.096  93.203 120.074  0.00  0.00    -0.090 HD
ATOM     21  H   LIG d   1      -0.038  94.610 119.247  0.00  0.00    -0.090 HD
ENDBRANCH   5  18
BRANCH   3  22
ATOM     22  C   LIG d   1       4.172  91.946 116.947  0.00  0.00     0.382 C 
ATOM     23  O   LIG d   1       4.881  92.908 117.327  0.00  0.00    -0.241 OA
ATOM     24  O   LIG d   1       4.670  91.065 116.220  0.00  0.00    -0.241 OA
ENDBRANCH   3  22
TORSDOF 7
ENDMDL
MODEL 7
REMARK VINA RESULT:      -4.2      3.296      5.964
REMARK  7 active torsions:
REMARK  status: ('A' for Active; 'I' for Inactive)
REMARK    1  A    between atoms: C_2  and  C_3 
REMARK    2  A    between atoms: C_3  and  O_6 
REMARK    3  A    between atoms: C_3  and  C_4 
REMARK    4  A    between atoms: C_7  and  O_6 
REMARK    5  A    between atoms: C_9  and  C_10 
REMARK    6  A    between atoms: N_15  and  C_14 
REMARK    7  A    between atoms: N_20  and  C_19 
REMARK       I    between atoms: C_22  and  N_20 
ROOT
ATOM      1  C   LIG d   1      -1.214  91.657 118.197  0.00  0.00     0.161 C 
ATOM      2  C   LIG d   1       0.140  91.825 118.531  0.00  0.00     0.016 C 
ATOM      3  C   LIG d   1       0.799  93.076 118.506  0.00  0.00     0.038 C 
ATOM      4  C   LIG d   1       0.104  94.275 118.289  0.00  0.00     0.028 C 
ATOM      5  C   LIG d   1      -1.159  94.100 117.452  0.00  0.00    -0.047 C 
ATOM      6  C   LIG d   1      -2.015  92.969 118.066  0.00  0.00     0.091 C 
ENDROOT
BRANCH   1   7
ATOM      7  O   LIG d   1      -1.846  90.777 119.148  0.00  0.00    -0.368 OA
BRANCH   7   8
ATOM      8  C   LIG d   1      -2.186  89.454 118.664  0.00  0.00     0.119 C 
BRANCH   8   9
ATOM      9  C   LIG d   1      -1.368  88.437 119.482  0.00  0.00     0.028 C 
ATOM     10  C   LIG d   1      -2.260  87.439 120.239  0.00  0.00     0.006 C 
ENDBRANCH   8   9
BRANCH   8  11
ATOM     11  C   LIG d   1      -1.740  89.261 117.212  0.00  0.00     0.028 C 
ATOM     12  C   LIG d   1      -0.587  88.254 117.072  0.00  0.00     0.006 C 
ENDBRANCH   8  11
ENDBRANCH   7   8
ENDBRANCH   1   7
BRANCH   6  13
ATOM     13  N   LIG d   1      -3.229  92.675 117.260  0.00  0.00    -0.311 N 
ATOM     14  C   LIG d   1      -4.431  92.464 117.795  0.00  0.00     0.210 C 
ATOM     15  C   LIG d   1      -5.543  92.159 116.787  0.00  0.00     0.109 C 
ATOM     16  O   LIG d   1      -4.687  92.533 119.007  0.00  0.00    -0.276 OA
ATOM     17  H   LIG d   1      -3.117  92.632 116.266  0.00  0.00     0.149 HD
ENDBRANCH   6  13
BRANCH   5  18
ATOM     18  N   LIG d   1      -1.856  95.400 117.421  0.00  0.00     0.381 N 
ATOM     19  H   LIG d   1      -1.209  96.126 117.188  0.00  0.00    -0.090 HD
ATOM     20  H   LIG d   1      -2.230  95.591 118.334  0.00  0.00    -0.090 HD
ATOM     21  H   LIG d   1      -2.594  95.375 116.751  0.00  0.00    -0.090 HD
ENDBRANCH   5  18
BRANCH   3  22
ATOM     22  C   LIG d   1       2.176  93.131 118.659  0.00  0.00     0.382 C 
ATOM     23  O   LIG d   1       2.926  92.837 117.698  0.00  0.00    -0.241 OA
ATOM     24  O   LIG d   1       2.677  93.429 119.760  0.00  0.00    -0.241 OA
ENDBRANCH   3  22
TORSDOF 7
ENDMDL
MODEL 8
REMARK VINA RESULT:      -4.1      3.283      5.730
REMARK  7 active torsions:
REMARK  status: ('A' for Active; 'I' for Inactive)
REMARK    1  A    between atoms: C_2  and  C_3 
REMARK    2  A    between atoms: C_3  and  O_6 
REMARK    3  A    between atoms: C_3  and  C_4 
REMARK    4  A    between atoms: C_7  and  O_6 
REMARK    5  A    between atoms: C_9  and  C_10 
REMARK    6  A    between atoms: N_15  and  C_14 
REMARK    7  A    between atoms: N_20  and  C_19 
REMARK       I    between atoms: C_22  and  N_20 
ROOT
ATOM      1  C   LIG d   1      -1.500  91.578 117.880  0.00  0.00     0.161 C 
ATOM      2  C   LIG d   1      -0.099  91.626 117.978  0.00  0.00     0.016 C 
ATOM      3  C   LIG d   1       0.640  92.832 117.978  0.00  0.00     0.038 C 
ATOM      4  C   LIG d   1       0.013  94.086 118.031  0.00  0.00     0.028 C 
ATOM      5  C   LIG d   1      -1.386  94.090 117.425  0.00  0.00    -0.047 C 
ATOM      6  C   LIG d   1      -2.207  92.939 118.050  0.00  0.00     0.091 C 
ENDROOT
BRANCH   1   7
ATOM      7  O   LIG d   1      -2.023  90.620 118.821  0.00  0.00    -0.368 OA
BRANCH   7   8
ATOM      8  C   LIG d   1      -1.158  89.503 119.141  0.00  0.00     0.119 C 
BRANCH   8   9
ATOM      9  C   LIG d   1      -1.579  88.321 118.246  0.00  0.00     0.028 C 
ATOM     10  C   LIG d   1      -0.549  88.022 117.145  0.00  0.00     0.006 C 
ENDBRANCH   8   9
BRANCH   8  11
ATOM     11  C   LIG d   1      -1.377  89.022 120.578  0.00  0.00     0.028 C 
ATOM     12  C   LIG d   1      -2.014  87.625 120.649  0.00  0.00     0.006 C 
ENDBRANCH   8  11
ENDBRANCH   7   8
ENDBRANCH   1   7
BRANCH   6  13
ATOM     13  N   LIG d   1      -3.562  92.819 117.451  0.00  0.00    -0.311 N 
ATOM     14  C   LIG d   1      -4.679  92.750 118.173  0.00  0.00     0.210 C 
ATOM     15  C   LIG d   1      -5.968  92.610 117.357  0.00  0.00     0.109 C 
ATOM     16  O   LIG d   1      -4.728  92.824 119.410  0.00  0.00    -0.276 OA
ATOM     17  H   LIG d   1      -3.618  92.784 116.452  0.00  0.00     0.149 HD
ENDBRANCH   6  13
BRANCH   5  18
ATOM     18  N   LIG d   1      -1.975  95.420 117.672  0.00  0.00     0.381 N 
ATOM     19  H   LIG d   1      -1.323  96.133 117.411  0.00  0.00    -0.090 HD
ATOM     20  H   LIG d   1      -2.167  95.513 118.654  0.00  0.00    -0.090 HD
ATOM     21  H   LIG d   1      -2.817  95.522 117.150  0.00  0.00    -0.090 HD
ENDBRANCH   5  18
BRANCH   3  22
ATOM     22  C   LIG d   1       2.023  92.790 117.883  0.00  0.00     0.382 C 
ATOM     23  O   LIG d   1       2.729  93.296 118.788  0.00  0.00    -0.241 OA
ATOM     24  O   LIG d   1       2.572  92.292 116.882  0.00  0.00    -0.241 OA
ENDBRANCH   3  22
TORSDOF 7
ENDMDL
MODEL 9
REMARK VINA RESULT:      -4.1      2.968      5.915
REMARK  7 active torsions:
REMARK  status: ('A' for Active; 'I' for Inactive)
REMARK    1  A    between atoms: C_2  and  C_3 
REMARK    2  A    between atoms: C_3  and  O_6 
REMARK    3  A    between atoms: C_3  and  C_4 
REMARK    4  A    between atoms: C_7  and  O_6 
REMARK    5  A    between atoms: C_9  and  C_10 
REMARK    6  A    between atoms: N_15  and  C_14 
REMARK    7  A    between atoms: N_20  and  C_19 
REMARK       I    between atoms: C_22  and  N_20 
ROOT
ATOM      1  C   LIG d   1      -2.688  92.639 118.960  0.00  0.00     0.161 C 
ATOM      2  C   LIG d   1      -2.544  94.021 118.753  0.00  0.00     0.016 C 
ATOM      3  C   LIG d   1      -1.509  94.588 117.973  0.00  0.00     0.038 C 
ATOM      4  C   LIG d   1      -0.632  93.796 117.218  0.00  0.00     0.028 C 
ATOM      5  C   LIG d   1      -0.425  92.400 117.797  0.00  0.00    -0.047 C 
ATOM      6  C   LIG d   1      -1.806  91.754 118.054  0.00  0.00     0.091 C 
ENDROOT
BRANCH   1   7
ATOM      7  O   LIG d   1      -4.074  92.267 118.828  0.00  0.00    -0.368 OA
BRANCH   7   8
ATOM      8  C   LIG d   1      -4.818  92.943 117.785  0.00  0.00     0.119 C 
BRANCH   8   9
ATOM      9  C   LIG d   1      -6.144  93.428 118.402  0.00  0.00     0.028 C 
ATOM     10  C   LIG d   1      -6.084  94.902 118.837  0.00  0.00     0.006 C 
ENDBRANCH   8   9
BRANCH   8  11
ATOM     11  C   LIG d   1      -5.221  91.972 116.670  0.00  0.00     0.028 C 
ATOM     12  C   LIG d   1      -6.528  92.378 115.971  0.00  0.00     0.006 C 
ENDBRANCH   8  11
ENDBRANCH   7   8
ENDBRANCH   1   7
BRANCH   6  13
ATOM     13  N   LIG d   1      -1.696  90.420 118.699  0.00  0.00    -0.311 N 
ATOM     14  C   LIG d   1      -2.329  89.336 118.252  0.00  0.00     0.210 C 
ATOM     15  C   LIG d   1      -2.095  88.065 119.075  0.00  0.00     0.109 C 
ATOM     16  O   LIG d   1      -3.036  89.299 117.234  0.00  0.00    -0.276 OA
ATOM     17  H   LIG d   1      -1.118  90.352 119.513  0.00  0.00     0.149 HD
ENDBRANCH   6  13
BRANCH   5  18
ATOM     18  N   LIG d   1       0.399  91.638 116.840  0.00  0.00     0.381 N 
ATOM     19  H   LIG d   1       1.284  91.420 117.254  0.00  0.00    -0.090 HD
ATOM     20  H   LIG d   1       0.563  92.207 116.027  0.00  0.00    -0.090 HD
ATOM     21  H   LIG d   1      -0.069  90.799 116.578  0.00  0.00    -0.090 HD
ENDBRANCH   5  18
BRANCH   3  22
ATOM     22  C   LIG d   1      -1.321  95.961 117.975  0.00  0.00     0.382 C 
ATOM     23  O   LIG d   1      -2.309  96.730 118.067  0.00  0.00    -0.241 OA
ATOM     24  O   LIG d   1      -0.180  96.443 117.842  0.00  0.00    -0.241 OA
ENDBRANCH   3  22
TORSDOF 7
ENDMDL
