MODEL 1
REMARK VINA RESULT:      -5.7      0.000      0.000
REMARK  7 active torsions:
REMARK  status: ('A' for Active; 'I' for Inactive)
REMARK    1  A    between atoms: C_2  and  C_3 
REMARK    2  A    between atoms: C_3  and  O_6 
REMARK    3  A    between atoms: C_3  and  C_4 
REMARK    4  A    between atoms: C_7  and  O_6 
REMARK    5  A    between atoms: C_9  and  C_10 
REMARK    6  A    between atoms: N_15  and  C_14 
REMARK    7  A    between atoms: N_20  and  C_19 
REMARK       I    between atoms: C_22  and  N_20 
ROOT
ATOM      1  C   LIG d   1      -5.563  92.977 117.395  0.00  0.00     0.161 C 
ATOM      2  C   LIG d   1      -6.657  92.137 117.127  0.00  0.00     0.016 C 
ATOM      3  C   LIG d   1      -6.525  90.772 116.784  0.00  0.00     0.038 C 
ATOM      4  C   LIG d   1      -5.288  90.111 116.834  0.00  0.00     0.028 C 
ATOM      5  C   LIG d   1      -4.098  91.037 116.608  0.00  0.00    -0.047 C 
ATOM      6  C   LIG d   1      -4.214  92.247 117.563  0.00  0.00     0.091 C 
ENDROOT
BRANCH   1   7
ATOM      7  O   LIG d   1      -5.842  93.788 118.553  0.00  0.00    -0.368 OA
BRANCH   7   8
ATOM      8  C   LIG d   1      -7.231  93.868 118.956  0.00  0.00     0.119 C 
BRANCH   8   9
ATOM      9  C   LIG d   1      -7.748  95.265 118.560  0.00  0.00     0.028 C 
ATOM     10  C   LIG d   1      -9.226  95.471 118.932  0.00  0.00     0.006 C 
ENDBRANCH   8   9
BRANCH   8  11
ATOM     11  C   LIG d   1      -7.375  93.799 120.479  0.00  0.00     0.028 C 
ATOM     12  C   LIG d   1      -6.329  94.651 121.215  0.00  0.00     0.006 C 
ENDBRANCH   8  11
ENDBRANCH   7   8
ENDBRANCH   1   7
BRANCH   6  13
ATOM     13  N   LIG d   1      -3.133  93.245 117.348  0.00  0.00    -0.311 N 
ATOM     14  C   LIG d   1      -2.016  93.282 118.071  0.00  0.00     0.210 C 
ATOM     15  C   LIG d   1      -1.041  94.403 117.698  0.00  0.00     0.109 C 
ATOM     16  O   LIG d   1      -1.724  92.473 118.965  0.00  0.00    -0.276 OA
ATOM     17  H   LIG d   1      -3.273  93.919 116.622  0.00  0.00     0.149 HD
ENDBRANCH   6  13
BRANCH   5  18
ATOM     18  N   LIG d   1      -2.871  90.246 116.823  0.00  0.00     0.381 N 
ATOM     19  H   LIG d   1      -2.904  89.808 117.722  0.00  0.00    -0.090 HD
ATOM     20  H   LIG d   1      -2.078  90.864 116.802  0.00  0.00    -0.090 HD
ATOM     21  H   LIG d   1      -2.782  89.555 116.112  0.00  0.00    -0.090 HD
ENDBRANCH   5  18
BRANCH   3  22
ATOM     22  C   LIG d   1      -7.633  90.062 116.348  0.00  0.00     0.382 C 
ATOM     23  O   LIG d   1      -7.890  88.937 116.839  0.00  0.00    -0.241 OA
ATOM     24  O   LIG d   1      -8.354  90.513 115.438  0.00  0.00    -0.241 OA
ENDBRANCH   3  22
TORSDOF 7
ENDMDL
MODEL 2
REMARK VINA RESULT:      -5.2      1.963      4.649
REMARK  7 active torsions:
REMARK  status: ('A' for Active; 'I' for Inactive)
REMARK    1  A    between atoms: C_2  and  C_3 
REMARK    2  A    between atoms: C_3  and  O_6 
REMARK    3  A    between atoms: C_3  and  C_4 
REMARK    4  A    between atoms: C_7  and  O_6 
REMARK    5  A    between atoms: C_9  and  C_10 
REMARK    6  A    between atoms: N_15  and  C_14 
REMARK    7  A    between atoms: N_20  and  C_19 
REMARK       I    between atoms: C_22  and  N_20 
ROOT
ATOM      1  C   LIG d   1      -6.078  93.024 117.658  0.00  0.00     0.161 C 
ATOM      2  C   LIG d   1      -7.294  93.679 117.916  0.00  0.00     0.016 C 
ATOM      3  C   LIG d   1      -7.438  94.697 118.886  0.00  0.00     0.038 C 
ATOM      4  C   LIG d   1      -6.335  95.239 119.562  0.00  0.00     0.028 C 
ATOM      5  C   LIG d   1      -5.170  94.264 119.699  0.00  0.00    -0.047 C 
ATOM      6  C   LIG d   1      -4.841  93.678 118.307  0.00  0.00     0.091 C 
ENDROOT
BRANCH   1   7
ATOM      7  O   LIG d   1      -5.888  92.892 116.235  0.00  0.00    -0.368 OA
BRANCH   7   8
ATOM      8  C   LIG d   1      -6.073  91.564 115.687  0.00  0.00     0.119 C 
BRANCH   8   9
ATOM      9  C   LIG d   1      -7.585  91.359 115.471  0.00  0.00     0.028 C 
ATOM     10  C   LIG d   1      -8.054  89.958 115.899  0.00  0.00     0.006 C 
ENDBRANCH   8   9
BRANCH   8  11
ATOM     11  C   LIG d   1      -5.657  90.484 116.691  0.00  0.00     0.028 C 
ATOM     12  C   LIG d   1      -4.354  89.772 116.294  0.00  0.00     0.006 C 
ENDBRANCH   8  11
ENDBRANCH   7   8
ENDBRANCH   1   7
BRANCH   6  13
ATOM     13  N   LIG d   1      -3.767  92.651 118.363  0.00  0.00    -0.311 N 
ATOM     14  C   LIG d   1      -2.480  92.924 118.156  0.00  0.00     0.210 C 
ATOM     15  C   LIG d   1      -1.542  91.717 118.242  0.00  0.00     0.109 C 
ATOM     16  O   LIG d   1      -2.023  94.057 117.942  0.00  0.00    -0.276 OA
ATOM     17  H   LIG d   1      -4.046  91.710 118.563  0.00  0.00     0.149 HD
ENDBRANCH   6  13
BRANCH   5  18
ATOM     18  N   LIG d   1      -4.041  95.000 120.298  0.00  0.00     0.381 N 
ATOM     19  H   LIG d   1      -4.163  95.060 121.289  0.00  0.00    -0.090 HD
ATOM     20  H   LIG d   1      -4.026  95.933 119.924  0.00  0.00    -0.090 HD
ATOM     21  H   LIG d   1      -3.183  94.538 120.089  0.00  0.00    -0.090 HD
ENDBRANCH   5  18
BRANCH   3  22
ATOM     22  C   LIG d   1      -8.704  95.157 119.217  0.00  0.00     0.382 C 
ATOM     23  O   LIG d   1      -8.872  96.361 119.529  0.00  0.00    -0.241 OA
ATOM     24  O   LIG d   1      -9.672  94.374 119.250  0.00  0.00    -0.241 OA
ENDBRANCH   3  22
TORSDOF 7
ENDMDL
MODEL 3
REMARK VINA RESULT:      -5.0      2.186      4.609
REMARK  7 active torsions:
REMARK  status: ('A' for Active; 'I' for Inactive)
REMARK    1  A    between atoms: C_2  and  C_3 
REMARK    2  A    between atoms: C_3  and  O_6 
REMARK    3  A    between atoms: C_3  and  C_4 
REMARK    4  A    between atoms: C_7  and  O_6 
REMARK    5  A    between atoms: C_9  and  C_10 
REMARK    6  A    between atoms: N_15  and  C_14 
REMARK    7  A    between atoms: N_20  and  C_19 
REMARK       I    between atoms: C_22  and  N_20 
ROOT
ATOM      1  C   LIG d   1      -4.405  92.519 118.169  0.00  0.00     0.161 C 
ATOM      2  C   LIG d   1      -4.532  91.458 117.257  0.00  0.00     0.016 C 
ATOM      3  C   LIG d   1      -5.716  91.192 116.532  0.00  0.00     0.038 C 
ATOM      4  C   LIG d   1      -6.814  92.065 116.558  0.00  0.00     0.028 C 
ATOM      5  C   LIG d   1      -6.916  92.870 117.849  0.00  0.00    -0.047 C 
ATOM      6  C   LIG d   1      -5.555  93.547 118.128  0.00  0.00     0.091 C 
ENDROOT
BRANCH   1   7
ATOM      7  O   LIG d   1      -3.137  93.177 117.981  0.00  0.00    -0.368 OA
BRANCH   7   8
ATOM      8  C   LIG d   1      -1.968  92.449 118.433  0.00  0.00     0.119 C 
BRANCH   8   9
ATOM      9  C   LIG d   1      -2.072  92.314 119.965  0.00  0.00     0.028 C 
ATOM     10  C   LIG d   1      -2.093  93.678 120.675  0.00  0.00     0.006 C 
ENDBRANCH   8   9
BRANCH   8  11
ATOM     11  C   LIG d   1      -0.685  93.246 118.182  0.00  0.00     0.028 C 
ATOM     12  C   LIG d   1      -0.908  94.466 117.276  0.00  0.00     0.006 C 
ENDBRANCH   8  11
ENDBRANCH   7   8
ENDBRANCH   1   7
BRANCH   6  13
ATOM     13  N   LIG d   1      -5.543  94.287 119.417  0.00  0.00    -0.311 N 
ATOM     14  C   LIG d   1      -5.789  95.592 119.516  0.00  0.00     0.210 C 
ATOM     15  C   LIG d   1      -5.706  96.160 120.936  0.00  0.00     0.109 C 
ATOM     16  O   LIG d   1      -6.100  96.327 118.566  0.00  0.00    -0.276 OA
ATOM     17  H   LIG d   1      -5.330  93.761 120.242  0.00  0.00     0.149 HD
ENDBRANCH   6  13
BRANCH   5  18
ATOM     18  N   LIG d   1      -8.019  93.836 117.686  0.00  0.00     0.381 N 
ATOM     19  H   LIG d   1      -8.339  93.828 116.738  0.00  0.00    -0.090 HD
ATOM     20  H   LIG d   1      -7.678  94.758 117.896  0.00  0.00    -0.090 HD
ATOM     21  H   LIG d   1      -8.769  93.603 118.299  0.00  0.00    -0.090 HD
ENDBRANCH   5  18
BRANCH   3  22
ATOM     22  C   LIG d   1      -5.825  90.019 115.800  0.00  0.00     0.382 C 
ATOM     23  O   LIG d   1      -4.792  89.396 115.457  0.00  0.00    -0.241 OA
ATOM     24  O   LIG d   1      -6.942  89.600 115.441  0.00  0.00    -0.241 OA
ENDBRANCH   3  22
TORSDOF 7
ENDMDL
MODEL 4
REMARK VINA RESULT:      -5.0      2.283      4.491
REMARK  7 active torsions:
REMARK  status: ('A' for Active; 'I' for Inactive)
REMARK    1  A    between atoms: C_2  and  C_3 
REMARK    2  A    between atoms: C_3  and  O_6 
REMARK    3  A    between atoms: C_3  and  C_4 
REMARK    4  A    between atoms: C_7  and  O_6 
REMARK    5  A    between atoms: C_9  and  C_10 
REMARK    6  A    between atoms: N_15  and  C_14 
REMARK    7  A    between atoms: N_20  and  C_19 
REMARK       I    between atoms: C_22  and  N_20 
ROOT
ATOM      1  C   LIG d   1      -4.214  91.138 117.981  0.00  0.00     0.161 C 
ATOM      2  C   LIG d   1      -5.220  90.441 117.291  0.00  0.00     0.016 C 
ATOM      3  C   LIG d   1      -6.426  91.039 116.860  0.00  0.00     0.038 C 
ATOM      4  C   LIG d   1      -6.644  92.422 116.957  0.00  0.00     0.028 C 
ATOM      5  C   LIG d   1      -5.873  93.078 118.098  0.00  0.00    -0.047 C 
ATOM      6  C   LIG d   1      -4.385  92.672 117.997  0.00  0.00     0.091 C 
ENDROOT
BRANCH   1   7
ATOM      7  O   LIG d   1      -2.922  90.784 117.449  0.00  0.00    -0.368 OA
BRANCH   7   8
ATOM      8  C   LIG d   1      -2.055  90.030 118.331  0.00  0.00     0.119 C 
BRANCH   8   9
ATOM      9  C   LIG d   1      -1.914  88.613 117.741  0.00  0.00     0.028 C 
ATOM     10  C   LIG d   1      -2.044  87.516 118.811  0.00  0.00     0.006 C 
ENDBRANCH   8   9
BRANCH   8  11
ATOM     11  C   LIG d   1      -2.695  89.834 119.708  0.00  0.00     0.028 C 
ATOM     12  C   LIG d   1      -1.897  90.505 120.837  0.00  0.00     0.006 C 
ENDBRANCH   8  11
ENDBRANCH   7   8
ENDBRANCH   1   7
BRANCH   6  13
ATOM     13  N   LIG d   1      -3.575  93.202 119.125  0.00  0.00    -0.311 N 
ATOM     14  C   LIG d   1      -2.417  93.839 118.959  0.00  0.00     0.210 C 
ATOM     15  C   LIG d   1      -1.735  94.287 120.256  0.00  0.00     0.109 C 
ATOM     16  O   LIG d   1      -1.906  94.104 117.861  0.00  0.00    -0.276 OA
ATOM     17  H   LIG d   1      -3.931  93.059 120.049  0.00  0.00     0.149 HD
ENDBRANCH   6  13
BRANCH   5  18
ATOM     18  N   LIG d   1      -6.083  94.534 117.998  0.00  0.00     0.381 N 
ATOM     19  H   LIG d   1      -6.235  94.918 118.909  0.00  0.00    -0.090 HD
ATOM     20  H   LIG d   1      -6.903  94.707 117.443  0.00  0.00    -0.090 HD
ATOM     21  H   LIG d   1      -5.290  94.965 117.576  0.00  0.00    -0.090 HD
ENDBRANCH   5  18
BRANCH   3  22
ATOM     22  C   LIG d   1      -7.447  90.245 116.361  0.00  0.00     0.382 C 
ATOM     23  O   LIG d   1      -7.621  89.089 116.815  0.00  0.00    -0.241 OA
ATOM     24  O   LIG d   1      -8.168  90.654 115.431  0.00  0.00    -0.241 OA
ENDBRANCH   3  22
TORSDOF 7
ENDMDL
MODEL 5
REMARK VINA RESULT:      -4.8      2.616      4.755
REMARK  7 active torsions:
REMARK  status: ('A' for Active; 'I' for Inactive)
REMARK    1  A    between atoms: C_2  and  C_3 
REMARK    2  A    between atoms: C_3  and  O_6 
REMARK    3  A    between atoms: C_3  and  C_4 
REMARK    4  A    between atoms: C_7  and  O_6 
REMARK    5  A    between atoms: C_9  and  C_10 
REMARK    6  A    between atoms: N_15  and  C_14 
REMARK    7  A    between atoms: N_20  and  C_19 
REMARK       I    between atoms: C_22  and  N_20 
ROOT
ATOM      1  C   LIG d   1      -5.471  91.788 119.142  0.00  0.00     0.161 C 
ATOM      2  C   LIG d   1      -4.644  90.888 118.450  0.00  0.00     0.016 C 
ATOM      3  C   LIG d   1      -4.823  90.556 117.088  0.00  0.00     0.038 C 
ATOM      4  C   LIG d   1      -5.757  91.221 116.280  0.00  0.00     0.028 C 
ATOM      5  C   LIG d   1      -6.947  91.772 117.057  0.00  0.00    -0.047 C 
ATOM      6  C   LIG d   1      -6.425  92.607 118.248  0.00  0.00     0.091 C 
ENDROOT
BRANCH   1   7
ATOM      7  O   LIG d   1      -4.666  92.667 119.953  0.00  0.00    -0.368 OA
BRANCH   7   8
ATOM      8  C   LIG d   1      -3.283  92.819 119.548  0.00  0.00     0.119 C 
BRANCH   8   9
ATOM      9  C   LIG d   1      -2.412  92.663 120.810  0.00  0.00     0.028 C 
ATOM     10  C   LIG d   1      -1.850  91.240 120.964  0.00  0.00     0.006 C 
ENDBRANCH   8   9
BRANCH   8  11
ATOM     11  C   LIG d   1      -3.005  94.235 119.036  0.00  0.00     0.028 C 
ATOM     12  C   LIG d   1      -3.989  95.275 119.593  0.00  0.00     0.006 C 
ENDBRANCH   8  11
ENDBRANCH   7   8
ENDBRANCH   1   7
BRANCH   6  13
ATOM     13  N   LIG d   1      -7.525  93.114 119.110  0.00  0.00    -0.311 N 
ATOM     14  C   LIG d   1      -7.879  94.397 119.169  0.00  0.00     0.210 C 
ATOM     15  C   LIG d   1      -9.025  94.708 120.137  0.00  0.00     0.109 C 
ATOM     16  O   LIG d   1      -7.375  95.301 118.486  0.00  0.00    -0.276 OA
ATOM     17  H   LIG d   1      -8.009  92.443 119.674  0.00  0.00     0.149 HD
ENDBRANCH   6  13
BRANCH   5  18
ATOM     18  N   LIG d   1      -7.769  92.557 116.116  0.00  0.00     0.381 N 
ATOM     19  H   LIG d   1      -7.689  92.174 115.196  0.00  0.00    -0.090 HD
ATOM     20  H   LIG d   1      -7.426  93.502 116.096  0.00  0.00    -0.090 HD
ATOM     21  H   LIG d   1      -8.722  92.548 116.407  0.00  0.00    -0.090 HD
ENDBRANCH   5  18
BRANCH   3  22
ATOM     22  C   LIG d   1      -4.090  89.519 116.531  0.00  0.00     0.382 C 
ATOM     23  O   LIG d   1      -3.065  89.092 117.115  0.00  0.00    -0.241 OA
ATOM     24  O   LIG d   1      -4.415  89.035 115.430  0.00  0.00    -0.241 OA
ENDBRANCH   3  22
TORSDOF 7
ENDMDL
MODEL 6
REMARK VINA RESULT:      -4.7      1.588      1.974
REMARK  7 active torsions:
REMARK  status: ('A' for Active; 'I' for Inactive)
REMARK    1  A    between atoms: C_2  and  C_3 
REMARK    2  A    between atoms: C_3  and  O_6 
REMARK    3  A    between atoms: C_3  and  C_4 
REMARK    4  A    between atoms: C_7  and  O_6 
REMARK    5  A    between atoms: C_9  and  C_10 
REMARK    6  A    between atoms: N_15  and  C_14 
REMARK    7  A    between atoms: N_20  and  C_19 
REMARK       I    between atoms: C_22  and  N_20 
ROOT
ATOM      1  C   LIG d   1      -4.108  92.841 117.641  0.00  0.00     0.161 C 
ATOM      2  C   LIG d   1      -5.377  92.290 117.394  0.00  0.00     0.016 C 
ATOM      3  C   LIG d   1      -5.595  90.915 117.152  0.00  0.00     0.038 C 
ATOM      4  C   LIG d   1      -4.571  89.966 117.290  0.00  0.00     0.028 C 
ATOM      5  C   LIG d   1      -3.179  90.538 117.041  0.00  0.00    -0.047 C 
ATOM      6  C   LIG d   1      -2.995  91.806 117.906  0.00  0.00     0.091 C 
ENDROOT
BRANCH   1   7
ATOM      7  O   LIG d   1      -4.187  93.781 118.730  0.00  0.00    -0.368 OA
BRANCH   7   8
ATOM      8  C   LIG d   1      -5.502  93.983 119.304  0.00  0.00     0.119 C 
BRANCH   8   9
ATOM      9  C   LIG d   1      -5.825  95.487 119.204  0.00  0.00     0.028 C 
ATOM     10  C   LIG d   1      -4.632  96.371 119.601  0.00  0.00     0.006 C 
ENDBRANCH   8   9
BRANCH   8  11
ATOM     11  C   LIG d   1      -5.511  93.666 120.802  0.00  0.00     0.028 C 
ATOM     12  C   LIG d   1      -5.428  92.159 121.093  0.00  0.00     0.006 C 
ENDBRANCH   8  11
ENDBRANCH   7   8
ENDBRANCH   1   7
BRANCH   6  13
ATOM     13  N   LIG d   1      -1.691  92.475 117.660  0.00  0.00    -0.311 N 
ATOM     14  C   LIG d   1      -0.598  92.239 118.383  0.00  0.00     0.210 C 
ATOM     15  C   LIG d   1       0.635  93.051 117.975  0.00  0.00     0.109 C 
ATOM     16  O   LIG d   1      -0.524  91.410 119.303  0.00  0.00    -0.276 OA
ATOM     17  H   LIG d   1      -1.653  93.140 116.912  0.00  0.00     0.149 HD
ENDBRANCH   6  13
BRANCH   5  18
ATOM     18  N   LIG d   1      -2.200  89.479 117.353  0.00  0.00     0.381 N 
ATOM     19  H   LIG d   1      -1.848  89.082 116.504  0.00  0.00    -0.090 HD
ATOM     20  H   LIG d   1      -2.661  88.753 117.873  0.00  0.00    -0.090 HD
ATOM     21  H   LIG d   1      -1.449  89.855 117.889  0.00  0.00    -0.090 HD
ENDBRANCH   5  18
BRANCH   3  22
ATOM     22  C   LIG d   1      -6.841  90.481 116.727  0.00  0.00     0.382 C 
ATOM     23  O   LIG d   1      -7.739  91.316 116.459  0.00  0.00    -0.241 OA
ATOM     24  O   LIG d   1      -7.094  89.263 116.651  0.00  0.00    -0.241 OA
ENDBRANCH   3  22
TORSDOF 7
ENDMDL
MODEL 7
REMARK VINA RESULT:      -4.7      2.979      5.713
REMARK  7 active torsions:
REMARK  status: ('A' for Active; 'I' for Inactive)
REMARK    1  A    between atoms: C_2  and  C_3 
REMARK    2  A    between atoms: C_3  and  O_6 
REMARK    3  A    between atoms: C_3  and  C_4 
REMARK    4  A    between atoms: C_7  and  O_6 
REMARK    5  A    between atoms: C_9  and  C_10 
REMARK    6  A    between atoms: N_15  and  C_14 
REMARK    7  A    between atoms: N_20  and  C_19 
REMARK       I    between atoms: C_22  and  N_20 
ROOT
ATOM      1  C   LIG d   1      -2.339  90.775 118.121  0.00  0.00     0.161 C 
ATOM      2  C   LIG d   1      -3.591  90.319 117.675  0.00  0.00     0.016 C 
ATOM      3  C   LIG d   1      -4.707  91.167 117.490  0.00  0.00     0.038 C 
ATOM      4  C   LIG d   1      -4.604  92.562 117.595  0.00  0.00     0.028 C 
ATOM      5  C   LIG d   1      -3.491  93.018 118.533  0.00  0.00    -0.047 C 
ATOM      6  C   LIG d   1      -2.177  92.309 118.134  0.00  0.00     0.091 C 
ENDROOT
BRANCH   1   7
ATOM      7  O   LIG d   1      -1.291  90.167 117.341  0.00  0.00    -0.368 OA
BRANCH   7   8
ATOM      8  C   LIG d   1      -0.384  89.295 118.061  0.00  0.00     0.119 C 
BRANCH   8   9
ATOM      9  C   LIG d   1       1.045  89.616 117.581  0.00  0.00     0.028 C 
ATOM     10  C   LIG d   1       1.061  90.298 116.202  0.00  0.00     0.006 C 
ENDBRANCH   8   9
BRANCH   8  11
ATOM     11  C   LIG d   1      -0.615  87.826 117.695  0.00  0.00     0.028 C 
ATOM     12  C   LIG d   1      -1.378  87.054 118.782  0.00  0.00     0.006 C 
ENDBRANCH   8  11
ENDBRANCH   7   8
ENDBRANCH   1   7
BRANCH   6  13
ATOM     13  N   LIG d   1      -1.055  92.635 119.054  0.00  0.00    -0.311 N 
ATOM     14  C   LIG d   1       0.097  93.163 118.646  0.00  0.00     0.210 C 
ATOM     15  C   LIG d   1       1.127  93.403 119.754  0.00  0.00     0.109 C 
ATOM     16  O   LIG d   1       0.353  93.486 117.476  0.00  0.00    -0.276 OA
ATOM     17  H   LIG d   1      -1.189  92.435 120.025  0.00  0.00     0.149 HD
ENDBRANCH   6  13
BRANCH   5  18
ATOM     18  N   LIG d   1      -3.406  94.488 118.441  0.00  0.00     0.381 N 
ATOM     19  H   LIG d   1      -3.177  94.756 117.505  0.00  0.00    -0.090 HD
ATOM     20  H   LIG d   1      -2.674  94.810 119.050  0.00  0.00    -0.090 HD
ATOM     21  H   LIG d   1      -4.274  94.897 118.709  0.00  0.00    -0.090 HD
ENDBRANCH   5  18
BRANCH   3  22
ATOM     22  C   LIG d   1      -5.953  90.616 117.235  0.00  0.00     0.382 C 
ATOM     23  O   LIG d   1      -6.991  91.208 117.618  0.00  0.00    -0.241 OA
ATOM     24  O   LIG d   1      -6.052  89.512 116.666  0.00  0.00    -0.241 OA
ENDBRANCH   3  22
TORSDOF 7
ENDMDL
MODEL 8
REMARK VINA RESULT:      -4.6      2.912      6.797
REMARK  7 active torsions:
REMARK  status: ('A' for Active; 'I' for Inactive)
REMARK    1  A    between atoms: C_2  and  C_3 
REMARK    2  A    between atoms: C_3  and  O_6 
REMARK    3  A    between atoms: C_3  and  C_4 
REMARK    4  A    between atoms: C_7  and  O_6 
REMARK    5  A    between atoms: C_9  and  C_10 
REMARK    6  A    between atoms: N_15  and  C_14 
REMARK    7  A    between atoms: N_20  and  C_19 
REMARK       I    between atoms: C_22  and  N_20 
ROOT
ATOM      1  C   LIG d   1      -3.107  90.356 117.372  0.00  0.00     0.161 C 
ATOM      2  C   LIG d   1      -1.982  91.028 117.878  0.00  0.00     0.016 C 
ATOM      3  C   LIG d   1      -1.990  92.393 118.245  0.00  0.00     0.038 C 
ATOM      4  C   LIG d   1      -3.174  93.146 118.274  0.00  0.00     0.028 C 
ATOM      5  C   LIG d   1      -4.231  92.650 117.293  0.00  0.00    -0.047 C 
ATOM      6  C   LIG d   1      -4.435  91.132 117.501  0.00  0.00     0.091 C 
ENDROOT
BRANCH   1   7
ATOM      7  O   LIG d   1      -3.222  89.060 117.992  0.00  0.00    -0.368 OA
BRANCH   7   8
ATOM      8  C   LIG d   1      -2.141  88.679 118.877  0.00  0.00     0.119 C 
BRANCH   8   9
ATOM      9  C   LIG d   1      -1.527  87.378 118.324  0.00  0.00     0.028 C 
ATOM     10  C   LIG d   1      -0.466  87.643 117.243  0.00  0.00     0.006 C 
ENDBRANCH   8   9
BRANCH   8  11
ATOM     11  C   LIG d   1      -2.663  88.320 120.272  0.00  0.00     0.028 C 
ATOM     12  C   LIG d   1      -2.627  86.809 120.551  0.00  0.00     0.006 C 
ENDBRANCH   8  11
ENDBRANCH   7   8
ENDBRANCH   1   7
BRANCH   6  13
ATOM     13  N   LIG d   1      -5.392  90.550 116.524  0.00  0.00    -0.311 N 
ATOM     14  C   LIG d   1      -6.705  90.476 116.739  0.00  0.00     0.210 C 
ATOM     15  C   LIG d   1      -7.509  89.821 115.611  0.00  0.00     0.109 C 
ATOM     16  O   LIG d   1      -7.283  90.919 117.742  0.00  0.00    -0.276 OA
ATOM     17  H   LIG d   1      -5.012  90.194 115.669  0.00  0.00     0.149 HD
ENDBRANCH   6  13
BRANCH   5  18
ATOM     18  N   LIG d   1      -5.458  93.436 117.525  0.00  0.00     0.381 N 
ATOM     19  H   LIG d   1      -5.561  94.123 116.805  0.00  0.00    -0.090 HD
ATOM     20  H   LIG d   1      -5.377  93.912 118.406  0.00  0.00    -0.090 HD
ATOM     21  H   LIG d   1      -6.251  92.833 117.536  0.00  0.00    -0.090 HD
ENDBRANCH   5  18
BRANCH   3  22
ATOM     22  C   LIG d   1      -0.797  93.030 118.552  0.00  0.00     0.382 C 
ATOM     23  O   LIG d   1      -0.621  93.515 119.695  0.00  0.00    -0.241 OA
ATOM     24  O   LIG d   1       0.088  93.163 117.686  0.00  0.00    -0.241 OA
ENDBRANCH   3  22
TORSDOF 7
ENDMDL
MODEL 9
REMARK VINA RESULT:      -4.6      2.387      4.822
REMARK  7 active torsions:
REMARK  status: ('A' for Active; 'I' for Inactive)
REMARK    1  A    between atoms: C_2  and  C_3 
REMARK    2  A    between atoms: C_3  and  O_6 
REMARK    3  A    between atoms: C_3  and  C_4 
REMARK    4  A    between atoms: C_7  and  O_6 
REMARK    5  A    between atoms: C_9  and  C_10 
REMARK    6  A    between atoms: N_15  and  C_14 
REMARK    7  A    between atoms: N_20  and  C_19 
REMARK       I    between atoms: C_22  and  N_20 
ROOT
ATOM      1  C   LIG d   1      -3.467  91.982 118.299  0.00  0.00     0.161 C 
ATOM      2  C   LIG d   1      -4.018  91.087 117.366  0.00  0.00     0.016 C 
ATOM      3  C   LIG d   1      -5.408  90.890 117.205  0.00  0.00     0.038 C 
ATOM      4  C   LIG d   1      -6.353  91.690 117.865  0.00  0.00     0.028 C 
ATOM      5  C   LIG d   1      -5.847  92.257 119.187  0.00  0.00    -0.047 C 
ATOM      6  C   LIG d   1      -4.483  92.944 118.950  0.00  0.00     0.091 C 
ENDROOT
BRANCH   1   7
ATOM      7  O   LIG d   1      -2.393  92.725 117.688  0.00  0.00    -0.368 OA
BRANCH   7   8
ATOM      8  C   LIG d   1      -1.077  92.527 118.259  0.00  0.00     0.119 C 
BRANCH   8   9
ATOM      9  C   LIG d   1      -0.216  93.746 117.871  0.00  0.00     0.028 C 
ATOM     10  C   LIG d   1      -1.068  94.960 117.466  0.00  0.00     0.006 C 
ENDBRANCH   8   9
BRANCH   8  11
ATOM     11  C   LIG d   1      -0.374  91.319 117.634  0.00  0.00     0.028 C 
ATOM     12  C   LIG d   1       1.037  91.650 117.120  0.00  0.00     0.006 C 
ENDBRANCH   8  11
ENDBRANCH   7   8
ENDBRANCH   1   7
BRANCH   6  13
ATOM     13  N   LIG d   1      -3.878  93.453 120.208  0.00  0.00    -0.311 N 
ATOM     14  C   LIG d   1      -3.603  94.738 120.422  0.00  0.00     0.210 C 
ATOM     15  C   LIG d   1      -2.963  95.045 121.780  0.00  0.00     0.109 C 
ATOM     16  O   LIG d   1      -3.859  95.657 119.630  0.00  0.00    -0.276 OA
ATOM     17  H   LIG d   1      -3.666  92.778 120.918  0.00  0.00     0.149 HD
ENDBRANCH   6  13
BRANCH   5  18
ATOM     18  N   LIG d   1      -6.878  93.180 119.699  0.00  0.00     0.381 N 
ATOM     19  H   LIG d   1      -6.501  93.725 120.449  0.00  0.00    -0.090 HD
ATOM     20  H   LIG d   1      -7.647  92.641 120.057  0.00  0.00    -0.090 HD
ATOM     21  H   LIG d   1      -7.193  93.779 118.968  0.00  0.00    -0.090 HD
ENDBRANCH   5  18
BRANCH   3  22
ATOM     22  C   LIG d   1      -5.867  89.855 116.404  0.00  0.00     0.382 C 
ATOM     23  O   LIG d   1      -5.178  89.462 115.432  0.00  0.00    -0.241 OA
ATOM     24  O   LIG d   1      -6.981  89.339 116.615  0.00  0.00    -0.241 OA
ENDBRANCH   3  22
TORSDOF 7
ENDMDL
