MODEL 1
REMARK VINA RESULT:      -5.0      0.000      0.000
REMARK  7 active torsions:
REMARK  status: ('A' for Active; 'I' for Inactive)
REMARK    1  A    between atoms: C_2  and  C_3 
REMARK    2  A    between atoms: C_3  and  O_6 
REMARK    3  A    between atoms: C_3  and  C_4 
REMARK    4  A    between atoms: C_7  and  O_6 
REMARK    5  A    between atoms: C_9  and  C_10 
REMARK    6  A    between atoms: N_15  and  C_14 
REMARK    7  A    between atoms: N_20  and  C_19 
REMARK       I    between atoms: C_22  and  N_20 
ROOT
ATOM      1  C   LIG d   1      -3.163  89.773 117.807  0.00  0.00     0.161 C 
ATOM      2  C   LIG d   1      -4.260  89.391 117.017  0.00  0.00     0.016 C 
ATOM      3  C   LIG d   1      -5.395  90.209 116.813  0.00  0.00     0.038 C 
ATOM      4  C   LIG d   1      -5.444  91.535 117.267  0.00  0.00     0.028 C 
ATOM      5  C   LIG d   1      -4.576  91.788 118.495  0.00  0.00    -0.047 C 
ATOM      6  C   LIG d   1      -3.150  91.260 118.218  0.00  0.00     0.091 C 
ENDROOT
BRANCH   1   7
ATOM      7  O   LIG d   1      -1.935  89.427 117.137  0.00  0.00    -0.368 OA
BRANCH   7   8
ATOM      8  C   LIG d   1      -1.139  88.389 117.761  0.00  0.00     0.119 C 
BRANCH   8   9
ATOM      9  C   LIG d   1      -1.909  87.899 119.002  0.00  0.00     0.028 C 
ATOM     10  C   LIG d   1      -1.079  88.015 120.292  0.00  0.00     0.006 C 
ENDBRANCH   8   9
BRANCH   8  11
ATOM     11  C   LIG d   1       0.182  88.947 118.298  0.00  0.00     0.028 C 
ATOM     12  C   LIG d   1       0.683  90.163 117.502  0.00  0.00     0.006 C 
ENDBRANCH   8  11
ENDBRANCH   7   8
ENDBRANCH   1   7
BRANCH   6  13
ATOM     13  N   LIG d   1      -2.258  91.392 119.400  0.00  0.00    -0.311 N 
ATOM     14  C   LIG d   1      -1.432  92.421 119.584  0.00  0.00     0.210 C 
ATOM     15  C   LIG d   1      -0.586  92.351 120.859  0.00  0.00     0.109 C 
ATOM     16  O   LIG d   1      -1.344  93.401 118.829  0.00  0.00    -0.276 OA
ATOM     17  H   LIG d   1      -2.288  90.657 120.078  0.00  0.00     0.149 HD
ENDBRANCH   6  13
BRANCH   5  18
ATOM     18  N   LIG d   1      -4.612  93.236 118.776  0.00  0.00     0.381 N 
ATOM     19  H   LIG d   1      -4.179  93.737 118.027  0.00  0.00    -0.090 HD
ATOM     20  H   LIG d   1      -4.094  93.417 119.618  0.00  0.00    -0.090 HD
ATOM     21  H   LIG d   1      -5.555  93.538 118.886  0.00  0.00    -0.090 HD
ENDBRANCH   5  18
BRANCH   3  22
ATOM     22  C   LIG d   1      -6.515  89.687 116.183  0.00  0.00     0.382 C 
ATOM     23  O   LIG d   1      -6.759  88.458 116.255  0.00  0.00    -0.241 OA
ATOM     24  O   LIG d   1      -7.259  90.421 115.506  0.00  0.00    -0.241 OA
ENDBRANCH   3  22
TORSDOF 7
ENDMDL
MODEL 2
REMARK VINA RESULT:      -5.0      0.688      1.619
REMARK  7 active torsions:
REMARK  status: ('A' for Active; 'I' for Inactive)
REMARK    1  A    between atoms: C_2  and  C_3 
REMARK    2  A    between atoms: C_3  and  O_6 
REMARK    3  A    between atoms: C_3  and  C_4 
REMARK    4  A    between atoms: C_7  and  O_6 
REMARK    5  A    between atoms: C_9  and  C_10 
REMARK    6  A    between atoms: N_15  and  C_14 
REMARK    7  A    between atoms: N_20  and  C_19 
REMARK       I    between atoms: C_22  and  N_20 
ROOT
ATOM      1  C   LIG d   1      -3.067  89.779 117.886  0.00  0.00     0.161 C 
ATOM      2  C   LIG d   1      -4.157  89.397 117.086  0.00  0.00     0.016 C 
ATOM      3  C   LIG d   1      -5.286  90.219 116.866  0.00  0.00     0.038 C 
ATOM      4  C   LIG d   1      -5.334  91.548 117.312  0.00  0.00     0.028 C 
ATOM      5  C   LIG d   1      -4.478  91.804 118.548  0.00  0.00    -0.047 C 
ATOM      6  C   LIG d   1      -3.051  91.268 118.290  0.00  0.00     0.091 C 
ENDROOT
BRANCH   1   7
ATOM      7  O   LIG d   1      -1.833  89.424 117.231  0.00  0.00    -0.368 OA
BRANCH   7   8
ATOM      8  C   LIG d   1      -1.068  88.358 117.846  0.00  0.00     0.119 C 
BRANCH   8   9
ATOM      9  C   LIG d   1      -1.197  87.116 116.944  0.00  0.00     0.028 C 
ATOM     10  C   LIG d   1       0.170  86.529 116.555  0.00  0.00     0.006 C 
ENDBRANCH   8   9
BRANCH   8  11
ATOM     11  C   LIG d   1      -1.671  87.945 119.193  0.00  0.00     0.028 C 
ATOM     12  C   LIG d   1      -0.652  87.995 120.342  0.00  0.00     0.006 C 
ENDBRANCH   8  11
ENDBRANCH   7   8
ENDBRANCH   1   7
BRANCH   6  13
ATOM     13  N   LIG d   1      -2.171  91.402 119.480  0.00  0.00    -0.311 N 
ATOM     14  C   LIG d   1      -1.350  92.433 119.672  0.00  0.00     0.210 C 
ATOM     15  C   LIG d   1      -0.516  92.364 120.955  0.00  0.00     0.109 C 
ATOM     16  O   LIG d   1      -1.256  93.412 118.917  0.00  0.00    -0.276 OA
ATOM     17  H   LIG d   1      -2.207  90.667 120.159  0.00  0.00     0.149 HD
ENDBRANCH   6  13
BRANCH   5  18
ATOM     18  N   LIG d   1      -4.511  93.253 118.821  0.00  0.00     0.381 N 
ATOM     19  H   LIG d   1      -4.421  93.761 117.964  0.00  0.00    -0.090 HD
ATOM     20  H   LIG d   1      -3.733  93.490 119.412  0.00  0.00    -0.090 HD
ATOM     21  H   LIG d   1      -5.366  93.495 119.272  0.00  0.00    -0.090 HD
ENDBRANCH   5  18
BRANCH   3  22
ATOM     22  C   LIG d   1      -6.401  89.698 116.226  0.00  0.00     0.382 C 
ATOM     23  O   LIG d   1      -7.224  90.468 115.675  0.00  0.00    -0.241 OA
ATOM     24  O   LIG d   1      -6.616  88.472 116.231  0.00  0.00    -0.241 OA
ENDBRANCH   3  22
TORSDOF 7
ENDMDL
MODEL 3
REMARK VINA RESULT:      -4.9      2.656      6.204
REMARK  7 active torsions:
REMARK  status: ('A' for Active; 'I' for Inactive)
REMARK    1  A    between atoms: C_2  and  C_3 
REMARK    2  A    between atoms: C_3  and  O_6 
REMARK    3  A    between atoms: C_3  and  C_4 
REMARK    4  A    between atoms: C_7  and  O_6 
REMARK    5  A    between atoms: C_9  and  C_10 
REMARK    6  A    between atoms: N_15  and  C_14 
REMARK    7  A    between atoms: N_20  and  C_19 
REMARK       I    between atoms: C_22  and  N_20 
ROOT
ATOM      1  C   LIG d   1      -4.388  91.666 119.235  0.00  0.00     0.161 C 
ATOM      2  C   LIG d   1      -3.197  91.599 119.977  0.00  0.00     0.016 C 
ATOM      3  C   LIG d   1      -2.116  90.753 119.639  0.00  0.00     0.038 C 
ATOM      4  C   LIG d   1      -2.093  90.022 118.441  0.00  0.00     0.028 C 
ATOM      5  C   LIG d   1      -3.482  89.673 117.918  0.00  0.00    -0.047 C 
ATOM      6  C   LIG d   1      -4.337  90.960 117.864  0.00  0.00     0.091 C 
ENDROOT
BRANCH   1   7
ATOM      7  O   LIG d   1      -4.787  93.042 119.076  0.00  0.00    -0.368 OA
BRANCH   7   8
ATOM      8  C   LIG d   1      -5.422  93.659 120.222  0.00  0.00     0.119 C 
BRANCH   8   9
ATOM      9  C   LIG d   1      -6.926  93.779 119.910  0.00  0.00     0.028 C 
ATOM     10  C   LIG d   1      -7.197  94.035 118.417  0.00  0.00     0.006 C 
ENDBRANCH   8   9
BRANCH   8  11
ATOM     11  C   LIG d   1      -4.934  95.096 120.424  0.00  0.00     0.028 C 
ATOM     12  C   LIG d   1      -3.577  95.364 119.754  0.00  0.00     0.006 C 
ENDBRANCH   8  11
ENDBRANCH   7   8
ENDBRANCH   1   7
BRANCH   6  13
ATOM     13  N   LIG d   1      -5.737  90.694 117.443  0.00  0.00    -0.311 N 
ATOM     14  C   LIG d   1      -6.252  91.129 116.294  0.00  0.00     0.210 C 
ATOM     15  C   LIG d   1      -7.721  90.760 116.064  0.00  0.00     0.109 C 
ATOM     16  O   LIG d   1      -5.623  91.757 115.430  0.00  0.00    -0.276 OA
ATOM     17  H   LIG d   1      -6.309  90.164 118.071  0.00  0.00     0.149 HD
ENDBRANCH   6  13
BRANCH   5  18
ATOM     18  N   LIG d   1      -3.314  89.035 116.598  0.00  0.00     0.381 N 
ATOM     19  H   LIG d   1      -2.475  88.491 116.590  0.00  0.00    -0.090 HD
ATOM     20  H   LIG d   1      -3.232  89.752 115.899  0.00  0.00    -0.090 HD
ATOM     21  H   LIG d   1      -4.098  88.454 116.398  0.00  0.00    -0.090 HD
ENDBRANCH   5  18
BRANCH   3  22
ATOM     22  C   LIG d   1      -1.060  90.600 120.524  0.00  0.00     0.382 C 
ATOM     23  O   LIG d   1      -0.155  89.765 120.282  0.00  0.00    -0.241 OA
ATOM     24  O   LIG d   1      -1.023  91.255 121.582  0.00  0.00    -0.241 OA
ENDBRANCH   3  22
TORSDOF 7
ENDMDL
MODEL 4
REMARK VINA RESULT:      -4.8      2.092      5.173
REMARK  7 active torsions:
REMARK  status: ('A' for Active; 'I' for Inactive)
REMARK    1  A    between atoms: C_2  and  C_3 
REMARK    2  A    between atoms: C_3  and  O_6 
REMARK    3  A    between atoms: C_3  and  C_4 
REMARK    4  A    between atoms: C_7  and  O_6 
REMARK    5  A    between atoms: C_9  and  C_10 
REMARK    6  A    between atoms: N_15  and  C_14 
REMARK    7  A    between atoms: N_20  and  C_19 
REMARK       I    between atoms: C_22  and  N_20 
ROOT
ATOM      1  C   LIG d   1      -4.248  90.693 117.587  0.00  0.00     0.161 C 
ATOM      2  C   LIG d   1      -3.596  89.471 117.353  0.00  0.00     0.016 C 
ATOM      3  C   LIG d   1      -2.649  88.911 118.242  0.00  0.00     0.038 C 
ATOM      4  C   LIG d   1      -2.402  89.466 119.507  0.00  0.00     0.028 C 
ATOM      5  C   LIG d   1      -2.661  90.967 119.571  0.00  0.00    -0.047 C 
ATOM      6  C   LIG d   1      -4.073  91.257 119.013  0.00  0.00     0.091 C 
ENDROOT
BRANCH   1   7
ATOM      7  O   LIG d   1      -5.647  90.569 117.265  0.00  0.00    -0.368 OA
BRANCH   7   8
ATOM      8  C   LIG d   1      -5.982  90.593 115.855  0.00  0.00     0.119 C 
BRANCH   8   9
ATOM      9  C   LIG d   1      -7.011  91.720 115.643  0.00  0.00     0.028 C 
ATOM     10  C   LIG d   1      -7.216  92.574 116.906  0.00  0.00     0.006 C 
ENDBRANCH   8   9
BRANCH   8  11
ATOM     11  C   LIG d   1      -6.695  89.306 115.430  0.00  0.00     0.028 C 
ATOM     12  C   LIG d   1      -8.049  89.115 116.133  0.00  0.00     0.006 C 
ENDBRANCH   8  11
ENDBRANCH   7   8
ENDBRANCH   1   7
BRANCH   6  13
ATOM     13  N   LIG d   1      -4.376  92.711 118.961  0.00  0.00    -0.311 N 
ATOM     14  C   LIG d   1      -5.053  93.353 119.911  0.00  0.00     0.210 C 
ATOM     15  C   LIG d   1      -5.272  94.847 119.652  0.00  0.00     0.109 C 
ATOM     16  O   LIG d   1      -5.465  92.834 120.960  0.00  0.00    -0.276 OA
ATOM     17  H   LIG d   1      -4.051  93.216 118.160  0.00  0.00     0.149 HD
ENDBRANCH   6  13
BRANCH   5  18
ATOM     18  N   LIG d   1      -2.497  91.388 120.975  0.00  0.00     0.381 N 
ATOM     19  H   LIG d   1      -1.860  92.158 121.026  0.00  0.00    -0.090 HD
ATOM     20  H   LIG d   1      -2.111  90.624 121.501  0.00  0.00    -0.090 HD
ATOM     21  H   LIG d   1      -3.379  91.652 121.357  0.00  0.00    -0.090 HD
ENDBRANCH   5  18
BRANCH   3  22
ATOM     22  C   LIG d   1      -1.910  87.805 117.852  0.00  0.00     0.382 C 
ATOM     23  O   LIG d   1      -2.386  86.994 117.022  0.00  0.00    -0.241 OA
ATOM     24  O   LIG d   1      -0.790  87.585 118.352  0.00  0.00    -0.241 OA
ENDBRANCH   3  22
TORSDOF 7
ENDMDL
MODEL 5
REMARK VINA RESULT:      -4.8      2.109      4.279
REMARK  7 active torsions:
REMARK  status: ('A' for Active; 'I' for Inactive)
REMARK    1  A    between atoms: C_2  and  C_3 
REMARK    2  A    between atoms: C_3  and  O_6 
REMARK    3  A    between atoms: C_3  and  C_4 
REMARK    4  A    between atoms: C_7  and  O_6 
REMARK    5  A    between atoms: C_9  and  C_10 
REMARK    6  A    between atoms: N_15  and  C_14 
REMARK    7  A    between atoms: N_20  and  C_19 
REMARK       I    between atoms: C_22  and  N_20 
ROOT
ATOM      1  C   LIG d   1      -3.206  91.846 118.071  0.00  0.00     0.161 C 
ATOM      2  C   LIG d   1      -4.354  91.228 117.549  0.00  0.00     0.016 C 
ATOM      3  C   LIG d   1      -4.391  89.877 117.134  0.00  0.00     0.038 C 
ATOM      4  C   LIG d   1      -3.316  89.004 117.356  0.00  0.00     0.028 C 
ATOM      5  C   LIG d   1      -1.965  89.709 117.418  0.00  0.00    -0.047 C 
ATOM      6  C   LIG d   1      -2.056  90.879 118.424  0.00  0.00     0.091 C 
ENDROOT
BRANCH   1   7
ATOM      7  O   LIG d   1      -3.559  92.644 119.218  0.00  0.00    -0.368 OA
BRANCH   7   8
ATOM      8  C   LIG d   1      -4.938  92.558 119.654  0.00  0.00     0.119 C 
BRANCH   8   9
ATOM      9  C   LIG d   1      -5.552  93.966 119.528  0.00  0.00     0.028 C 
ATOM     10  C   LIG d   1      -6.887  93.957 118.765  0.00  0.00     0.006 C 
ENDBRANCH   8   9
BRANCH   8  11
ATOM     11  C   LIG d   1      -5.031  92.207 121.142  0.00  0.00     0.028 C 
ATOM     12  C   LIG d   1      -4.093  91.057 121.543  0.00  0.00     0.006 C 
ENDBRANCH   8  11
ENDBRANCH   7   8
ENDBRANCH   1   7
BRANCH   6  13
ATOM     13  N   LIG d   1      -0.802  91.674 118.483  0.00  0.00    -0.311 N 
ATOM     14  C   LIG d   1       0.175  91.439 119.357  0.00  0.00     0.210 C 
ATOM     15  C   LIG d   1       1.373  92.389 119.260  0.00  0.00     0.109 C 
ATOM     16  O   LIG d   1       0.178  90.513 120.182  0.00  0.00    -0.276 OA
ATOM     17  H   LIG d   1      -0.707  92.426 117.828  0.00  0.00     0.149 HD
ENDBRANCH   6  13
BRANCH   5  18
ATOM     18  N   LIG d   1      -0.954  88.703 117.791  0.00  0.00     0.381 N 
ATOM     19  H   LIG d   1      -1.220  87.807 117.435  0.00  0.00    -0.090 HD
ATOM     20  H   LIG d   1      -0.907  88.644 118.793  0.00  0.00    -0.090 HD
ATOM     21  H   LIG d   1      -0.064  88.962 117.425  0.00  0.00    -0.090 HD
ENDBRANCH   5  18
BRANCH   3  22
ATOM     22  C   LIG d   1      -5.500  89.397 116.453  0.00  0.00     0.382 C 
ATOM     23  O   LIG d   1      -6.575  90.043 116.472  0.00  0.00    -0.241 OA
ATOM     24  O   LIG d   1      -5.451  88.305 115.857  0.00  0.00    -0.241 OA
ENDBRANCH   3  22
TORSDOF 7
ENDMDL
MODEL 6
REMARK VINA RESULT:      -4.5      1.671      5.051
REMARK  7 active torsions:
REMARK  status: ('A' for Active; 'I' for Inactive)
REMARK    1  A    between atoms: C_2  and  C_3 
REMARK    2  A    between atoms: C_3  and  O_6 
REMARK    3  A    between atoms: C_3  and  C_4 
REMARK    4  A    between atoms: C_7  and  O_6 
REMARK    5  A    between atoms: C_9  and  C_10 
REMARK    6  A    between atoms: N_15  and  C_14 
REMARK    7  A    between atoms: N_20  and  C_19 
REMARK       I    between atoms: C_22  and  N_20 
ROOT
ATOM      1  C   LIG d   1      -2.131  91.545 118.013  0.00  0.00     0.161 C 
ATOM      2  C   LIG d   1      -1.227  91.742 119.070  0.00  0.00     0.016 C 
ATOM      3  C   LIG d   1      -1.626  92.091 120.381  0.00  0.00     0.038 C 
ATOM      4  C   LIG d   1      -2.976  92.120 120.762  0.00  0.00     0.028 C 
ATOM      5  C   LIG d   1      -3.925  92.422 119.607  0.00  0.00    -0.047 C 
ATOM      6  C   LIG d   1      -3.612  91.463 118.436  0.00  0.00     0.091 C 
ENDROOT
BRANCH   1   7
ATOM      7  O   LIG d   1      -1.758  90.371 117.264  0.00  0.00    -0.368 OA
BRANCH   7   8
ATOM      8  C   LIG d   1      -1.139  89.302 118.020  0.00  0.00     0.119 C 
BRANCH   8   9
ATOM      9  C   LIG d   1      -0.080  88.646 117.113  0.00  0.00     0.028 C 
ATOM     10  C   LIG d   1      -0.390  87.168 116.823  0.00  0.00     0.006 C 
ENDBRANCH   8   9
BRANCH   8  11
ATOM     11  C   LIG d   1      -2.144  88.191 118.340  0.00  0.00     0.028 C 
ATOM     12  C   LIG d   1      -2.413  88.047 119.846  0.00  0.00     0.006 C 
ENDBRANCH   8  11
ENDBRANCH   7   8
ENDBRANCH   1   7
BRANCH   6  13
ATOM     13  N   LIG d   1      -4.440  91.746 117.234  0.00  0.00    -0.311 N 
ATOM     14  C   LIG d   1      -5.250  90.850 116.674  0.00  0.00     0.210 C 
ATOM     15  C   LIG d   1      -5.997  91.342 115.430  0.00  0.00     0.109 C 
ATOM     16  O   LIG d   1      -5.446  89.705 117.107  0.00  0.00    -0.276 OA
ATOM     17  H   LIG d   1      -4.366  92.662 116.835  0.00  0.00     0.149 HD
ENDBRANCH   6  13
BRANCH   5  18
ATOM     18  N   LIG d   1      -5.303  92.285 120.115  0.00  0.00     0.381 N 
ATOM     19  H   LIG d   1      -5.811  93.131 119.949  0.00  0.00    -0.090 HD
ATOM     20  H   LIG d   1      -5.270  92.126 121.106  0.00  0.00    -0.090 HD
ATOM     21  H   LIG d   1      -5.758  91.522 119.664  0.00  0.00    -0.090 HD
ENDBRANCH   5  18
BRANCH   3  22
ATOM     22  C   LIG d   1      -0.670  92.456 121.316  0.00  0.00     0.382 C 
ATOM     23  O   LIG d   1       0.349  93.094 120.956  0.00  0.00    -0.241 OA
ATOM     24  O   LIG d   1      -0.792  92.118 122.509  0.00  0.00    -0.241 OA
ENDBRANCH   3  22
TORSDOF 7
ENDMDL
MODEL 7
REMARK VINA RESULT:      -4.5      2.144      4.421
REMARK  7 active torsions:
REMARK  status: ('A' for Active; 'I' for Inactive)
REMARK    1  A    between atoms: C_2  and  C_3 
REMARK    2  A    between atoms: C_3  and  O_6 
REMARK    3  A    between atoms: C_3  and  C_4 
REMARK    4  A    between atoms: C_7  and  O_6 
REMARK    5  A    between atoms: C_9  and  C_10 
REMARK    6  A    between atoms: N_15  and  C_14 
REMARK    7  A    between atoms: N_20  and  C_19 
REMARK       I    between atoms: C_22  and  N_20 
ROOT
ATOM      1  C   LIG d   1      -3.648  91.788 118.608  0.00  0.00     0.161 C 
ATOM      2  C   LIG d   1      -4.675  91.236 117.825  0.00  0.00     0.016 C 
ATOM      3  C   LIG d   1      -4.553  90.009 117.134  0.00  0.00     0.038 C 
ATOM      4  C   LIG d   1      -3.441  89.171 117.303  0.00  0.00     0.028 C 
ATOM      5  C   LIG d   1      -2.169  89.921 117.683  0.00  0.00    -0.047 C 
ATOM      6  C   LIG d   1      -2.469  90.835 118.893  0.00  0.00     0.091 C 
ENDROOT
BRANCH   1   7
ATOM      7  O   LIG d   1      -4.193  92.295 119.842  0.00  0.00    -0.368 OA
BRANCH   7   8
ATOM      8  C   LIG d   1      -4.373  93.730 119.918  0.00  0.00     0.119 C 
BRANCH   8   9
ATOM      9  C   LIG d   1      -3.270  94.288 120.838  0.00  0.00     0.028 C 
ATOM     10  C   LIG d   1      -2.193  95.062 120.059  0.00  0.00     0.006 C 
ENDBRANCH   8   9
BRANCH   8  11
ATOM     11  C   LIG d   1      -5.694  94.090 120.604  0.00  0.00     0.028 C 
ATOM     12  C   LIG d   1      -6.871  94.184 119.620  0.00  0.00     0.006 C 
ENDBRANCH   8  11
ENDBRANCH   7   8
ENDBRANCH   1   7
BRANCH   6  13
ATOM     13  N   LIG d   1      -1.299  91.668 119.277  0.00  0.00    -0.311 N 
ATOM     14  C   LIG d   1      -0.433  91.321 120.227  0.00  0.00     0.210 C 
ATOM     15  C   LIG d   1       0.689  92.333 120.480  0.00  0.00     0.109 C 
ATOM     16  O   LIG d   1      -0.468  90.257 120.863  0.00  0.00    -0.276 OA
ATOM     17  H   LIG d   1      -1.177  92.534 118.790  0.00  0.00     0.149 HD
ENDBRANCH   6  13
BRANCH   5  18
ATOM     18  N   LIG d   1      -1.125  88.916 117.962  0.00  0.00     0.381 N 
ATOM     19  H   LIG d   1      -1.412  88.332 118.722  0.00  0.00    -0.090 HD
ATOM     20  H   LIG d   1      -0.281  89.391 118.229  0.00  0.00    -0.090 HD
ATOM     21  H   LIG d   1      -0.961  88.362 117.151  0.00  0.00    -0.090 HD
ENDBRANCH   5  18
BRANCH   3  22
ATOM     22  C   LIG d   1      -5.534  89.628 116.231  0.00  0.00     0.382 C 
ATOM     23  O   LIG d   1      -5.916  88.433 116.188  0.00  0.00    -0.241 OA
ATOM     24  O   LIG d   1      -6.011  90.453 115.430  0.00  0.00    -0.241 OA
ENDBRANCH   3  22
TORSDOF 7
ENDMDL
MODEL 8
REMARK VINA RESULT:      -4.4      2.860      5.430
REMARK  7 active torsions:
REMARK  status: ('A' for Active; 'I' for Inactive)
REMARK    1  A    between atoms: C_2  and  C_3 
REMARK    2  A    between atoms: C_3  and  O_6 
REMARK    3  A    between atoms: C_3  and  C_4 
REMARK    4  A    between atoms: C_7  and  O_6 
REMARK    5  A    between atoms: C_9  and  C_10 
REMARK    6  A    between atoms: N_15  and  C_14 
REMARK    7  A    between atoms: N_20  and  C_19 
REMARK       I    between atoms: C_22  and  N_20 
ROOT
ATOM      1  C   LIG d   1      -4.375  92.609 119.376  0.00  0.00     0.161 C 
ATOM      2  C   LIG d   1      -4.383  91.245 119.042  0.00  0.00     0.016 C 
ATOM      3  C   LIG d   1      -3.231  90.540 118.623  0.00  0.00     0.038 C 
ATOM      4  C   LIG d   1      -1.954  91.120 118.654  0.00  0.00     0.028 C 
ATOM      5  C   LIG d   1      -1.974  92.637 118.502  0.00  0.00    -0.047 C 
ATOM      6  C   LIG d   1      -2.971  93.231 119.523  0.00  0.00     0.091 C 
ENDROOT
BRANCH   1   7
ATOM      7  O   LIG d   1      -5.146  92.823 120.574  0.00  0.00    -0.368 OA
BRANCH   7   8
ATOM      8  C   LIG d   1      -6.471  93.380 120.389  0.00  0.00     0.119 C 
BRANCH   8   9
ATOM      9  C   LIG d   1      -6.455  94.187 119.077  0.00  0.00     0.028 C 
ATOM     10  C   LIG d   1      -7.472  93.660 118.051  0.00  0.00     0.006 C 
ENDBRANCH   8   9
BRANCH   8  11
ATOM     11  C   LIG d   1      -6.807  94.395 121.486  0.00  0.00     0.028 C 
ATOM     12  C   LIG d   1      -5.923  95.651 121.426  0.00  0.00     0.006 C 
ENDBRANCH   8  11
ENDBRANCH   7   8
ENDBRANCH   1   7
BRANCH   6  13
ATOM     13  N   LIG d   1      -3.114  94.704 119.384  0.00  0.00    -0.311 N 
ATOM     14  C   LIG d   1      -2.374  95.580 120.062  0.00  0.00     0.210 C 
ATOM     15  C   LIG d   1      -2.698  97.051 119.785  0.00  0.00     0.109 C 
ATOM     16  O   LIG d   1      -1.459  95.278 120.842  0.00  0.00    -0.276 OA
ATOM     17  H   LIG d   1      -3.813  95.036 118.749  0.00  0.00     0.149 HD
ENDBRANCH   6  13
BRANCH   5  18
ATOM     18  N   LIG d   1      -0.594  93.123 118.691  0.00  0.00     0.381 N 
ATOM     19  H   LIG d   1      -0.197  93.367 117.806  0.00  0.00    -0.090 HD
ATOM     20  H   LIG d   1      -0.042  92.384 119.091  0.00  0.00    -0.090 HD
ATOM     21  H   LIG d   1      -0.591  93.915 119.295  0.00  0.00    -0.090 HD
ENDBRANCH   5  18
BRANCH   3  22
ATOM     22  C   LIG d   1      -3.356  89.251 118.127  0.00  0.00     0.382 C 
ATOM     23  O   LIG d   1      -2.904  88.281 118.782  0.00  0.00    -0.241 OA
ATOM     24  O   LIG d   1      -3.877  89.050 117.014  0.00  0.00    -0.241 OA
ENDBRANCH   3  22
TORSDOF 7
ENDMDL
MODEL 9
REMARK VINA RESULT:      -4.4      2.068      5.250
REMARK  7 active torsions:
REMARK  status: ('A' for Active; 'I' for Inactive)
REMARK    1  A    between atoms: C_2  and  C_3 
REMARK    2  A    between atoms: C_3  and  O_6 
REMARK    3  A    between atoms: C_3  and  C_4 
REMARK    4  A    between atoms: C_7  and  O_6 
REMARK    5  A    between atoms: C_9  and  C_10 
REMARK    6  A    between atoms: N_15  and  C_14 
REMARK    7  A    between atoms: N_20  and  C_19 
REMARK       I    between atoms: C_22  and  N_20 
ROOT
ATOM      1  C   LIG d   1      -1.247  90.757 117.760  0.00  0.00     0.161 C 
ATOM      2  C   LIG d   1      -0.003  91.026 118.355  0.00  0.00     0.016 C 
ATOM      3  C   LIG d   1       0.247  92.164 119.156  0.00  0.00     0.038 C 
ATOM      4  C   LIG d   1      -0.780  93.037 119.544  0.00  0.00     0.028 C 
ATOM      5  C   LIG d   1      -1.941  93.084 118.556  0.00  0.00    -0.047 C 
ATOM      6  C   LIG d   1      -2.408  91.640 118.263  0.00  0.00     0.091 C 
ENDROOT
BRANCH   1   7
ATOM      7  O   LIG d   1      -1.573  89.362 117.919  0.00  0.00    -0.368 OA
BRANCH   7   8
ATOM      8  C   LIG d   1      -0.886  88.665 118.987  0.00  0.00     0.119 C 
BRANCH   8   9
ATOM      9  C   LIG d   1      -0.232  87.410 118.375  0.00  0.00     0.028 C 
ATOM     10  C   LIG d   1      -0.784  87.083 116.977  0.00  0.00     0.006 C 
ENDBRANCH   8   9
BRANCH   8  11
ATOM     11  C   LIG d   1      -1.873  88.138 120.033  0.00  0.00     0.028 C 
ATOM     12  C   LIG d   1      -2.102  89.127 121.186  0.00  0.00     0.006 C 
ENDBRANCH   8  11
ENDBRANCH   7   8
ENDBRANCH   1   7
BRANCH   6  13
ATOM     13  N   LIG d   1      -3.486  91.590 117.241  0.00  0.00    -0.311 N 
ATOM     14  C   LIG d   1      -4.783  91.560 117.544  0.00  0.00     0.210 C 
ATOM     15  C   LIG d   1      -5.727  91.489 116.340  0.00  0.00     0.109 C 
ATOM     16  O   LIG d   1      -5.242  91.617 118.695  0.00  0.00    -0.276 OA
ATOM     17  H   LIG d   1      -3.204  91.572 116.281  0.00  0.00     0.149 HD
ENDBRANCH   6  13
BRANCH   5  18
ATOM     18  N   LIG d   1      -2.998  93.924 119.150  0.00  0.00     0.381 N 
ATOM     19  H   LIG d   1      -2.772  94.130 120.103  0.00  0.00    -0.090 HD
ATOM     20  H   LIG d   1      -3.864  93.416 119.134  0.00  0.00    -0.090 HD
ATOM     21  H   LIG d   1      -3.091  94.771 118.633  0.00  0.00    -0.090 HD
ENDBRANCH   5  18
BRANCH   3  22
ATOM     22  C   LIG d   1       1.545  92.458 119.546  0.00  0.00     0.382 C 
ATOM     23  O   LIG d   1       2.504  92.190 118.783  0.00  0.00    -0.241 OA
ATOM     24  O   LIG d   1       1.772  92.948 120.668  0.00  0.00    -0.241 OA
ENDBRANCH   3  22
TORSDOF 7
ENDMDL
