MODEL 1
REMARK VINA RESULT:      -5.4      0.000      0.000
REMARK  7 active torsions:
REMARK  status: ('A' for Active; 'I' for Inactive)
REMARK    1  A    between atoms: C_2  and  C_3 
REMARK    2  A    between atoms: C_3  and  O_6 
REMARK    3  A    between atoms: C_3  and  C_4 
REMARK    4  A    between atoms: C_7  and  O_6 
REMARK    5  A    between atoms: C_9  and  C_10 
REMARK    6  A    between atoms: N_15  and  C_14 
REMARK    7  A    between atoms: N_20  and  C_19 
REMARK       I    between atoms: C_22  and  N_20 
ROOT
ATOM      1  C   LIG d   1      -5.499  92.452 117.525  0.00  0.00     0.161 C 
ATOM      2  C   LIG d   1      -6.574  91.581 117.282  0.00  0.00     0.016 C 
ATOM      3  C   LIG d   1      -6.412  90.204 117.004  0.00  0.00     0.038 C 
ATOM      4  C   LIG d   1      -5.165  89.570 117.100  0.00  0.00     0.028 C 
ATOM      5  C   LIG d   1      -3.988  90.506 116.847  0.00  0.00    -0.047 C 
ATOM      6  C   LIG d   1      -4.139  91.756 117.744  0.00  0.00     0.091 C 
ENDROOT
BRANCH   1   7
ATOM      7  O   LIG d   1      -5.808  93.310 118.642  0.00  0.00    -0.368 OA
BRANCH   7   8
ATOM      8  C   LIG d   1      -6.695  92.756 119.644  0.00  0.00     0.119 C 
BRANCH   8   9
ATOM      9  C   LIG d   1      -7.584  93.904 120.161  0.00  0.00     0.028 C 
ATOM     10  C   LIG d   1      -8.214  94.718 119.019  0.00  0.00     0.006 C 
ENDBRANCH   8   9
BRANCH   8  11
ATOM     11  C   LIG d   1      -5.916  92.264 120.868  0.00  0.00     0.028 C 
ATOM     12  C   LIG d   1      -5.827  90.732 120.940  0.00  0.00     0.006 C 
ENDBRANCH   8  11
ENDBRANCH   7   8
ENDBRANCH   1   7
BRANCH   6  13
ATOM     13  N   LIG d   1      -3.074  92.763 117.498  0.00  0.00    -0.311 N 
ATOM     14  C   LIG d   1      -2.311  93.274 118.462  0.00  0.00     0.210 C 
ATOM     15  C   LIG d   1      -1.287  94.312 117.995  0.00  0.00     0.109 C 
ATOM     16  O   LIG d   1      -2.364  92.942 119.656  0.00  0.00    -0.276 OA
ATOM     17  H   LIG d   1      -2.942  93.065 116.552  0.00  0.00     0.149 HD
ENDBRANCH   6  13
BRANCH   5  18
ATOM     18  N   LIG d   1      -2.751  89.749 117.114  0.00  0.00     0.381 N 
ATOM     19  H   LIG d   1      -2.162  89.766 116.305  0.00  0.00    -0.090 HD
ATOM     20  H   LIG d   1      -2.990  88.793 117.309  0.00  0.00    -0.090 HD
ATOM     21  H   LIG d   1      -2.270  90.144 117.892  0.00  0.00    -0.090 HD
ENDBRANCH   5  18
BRANCH   3  22
ATOM     22  C   LIG d   1      -7.502  89.455 116.586  0.00  0.00     0.382 C 
ATOM     23  O   LIG d   1      -7.842  88.431 117.227  0.00  0.00    -0.241 OA
ATOM     24  O   LIG d   1      -8.122  89.765 115.551  0.00  0.00    -0.241 OA
ENDBRANCH   3  22
TORSDOF 7
ENDMDL
MODEL 2
REMARK VINA RESULT:      -5.3      1.132      1.790
REMARK  7 active torsions:
REMARK  status: ('A' for Active; 'I' for Inactive)
REMARK    1  A    between atoms: C_2  and  C_3 
REMARK    2  A    between atoms: C_3  and  O_6 
REMARK    3  A    between atoms: C_3  and  C_4 
REMARK    4  A    between atoms: C_7  and  O_6 
REMARK    5  A    between atoms: C_9  and  C_10 
REMARK    6  A    between atoms: N_15  and  C_14 
REMARK    7  A    between atoms: N_20  and  C_19 
REMARK       I    between atoms: C_22  and  N_20 
ROOT
ATOM      1  C   LIG d   1      -5.617  92.406 117.638  0.00  0.00     0.161 C 
ATOM      2  C   LIG d   1      -6.649  91.494 117.361  0.00  0.00     0.016 C 
ATOM      3  C   LIG d   1      -6.421  90.142 117.019  0.00  0.00     0.038 C 
ATOM      4  C   LIG d   1      -5.143  89.567 117.078  0.00  0.00     0.028 C 
ATOM      5  C   LIG d   1      -4.017  90.571 116.861  0.00  0.00    -0.047 C 
ATOM      6  C   LIG d   1      -4.222  91.770 117.816  0.00  0.00     0.091 C 
ENDROOT
BRANCH   1   7
ATOM      7  O   LIG d   1      -5.959  93.195 118.795  0.00  0.00    -0.368 OA
BRANCH   7   8
ATOM      8  C   LIG d   1      -6.490  94.517 118.530  0.00  0.00     0.119 C 
BRANCH   8   9
ATOM      9  C   LIG d   1      -5.480  95.541 119.084  0.00  0.00     0.028 C 
ATOM     10  C   LIG d   1      -4.628  94.964 120.227  0.00  0.00     0.006 C 
ENDBRANCH   8   9
BRANCH   8  11
ATOM     11  C   LIG d   1      -7.786  94.763 119.308  0.00  0.00     0.028 C 
ATOM     12  C   LIG d   1      -8.052  93.691 120.377  0.00  0.00     0.006 C 
ENDBRANCH   8  11
ENDBRANCH   7   8
ENDBRANCH   1   7
BRANCH   6  13
ATOM     13  N   LIG d   1      -3.211  92.839 117.610  0.00  0.00    -0.311 N 
ATOM     14  C   LIG d   1      -2.104  92.952 118.343  0.00  0.00     0.210 C 
ATOM     15  C   LIG d   1      -1.205  94.137 117.978  0.00  0.00     0.109 C 
ATOM     16  O   LIG d   1      -1.766  92.165 119.240  0.00  0.00    -0.276 OA
ATOM     17  H   LIG d   1      -3.390  93.503 116.883  0.00  0.00     0.149 HD
ENDBRANCH   6  13
BRANCH   5  18
ATOM     18  N   LIG d   1      -2.741  89.866 117.086  0.00  0.00     0.381 N 
ATOM     19  H   LIG d   1      -2.683  89.566 118.039  0.00  0.00    -0.090 HD
ATOM     20  H   LIG d   1      -1.983  90.501 116.908  0.00  0.00    -0.090 HD
ATOM     21  H   LIG d   1      -2.674  89.079 116.478  0.00  0.00    -0.090 HD
ENDBRANCH   5  18
BRANCH   3  22
ATOM     22  C   LIG d   1      -7.476  89.359 116.573  0.00  0.00     0.382 C 
ATOM     23  O   LIG d   1      -8.042  89.629 115.487  0.00  0.00    -0.241 OA
ATOM     24  O   LIG d   1      -7.896  88.412 117.265  0.00  0.00    -0.241 OA
ENDBRANCH   3  22
TORSDOF 7
ENDMDL
MODEL 3
REMARK VINA RESULT:      -5.2      0.943      1.470
REMARK  7 active torsions:
REMARK  status: ('A' for Active; 'I' for Inactive)
REMARK    1  A    between atoms: C_2  and  C_3 
REMARK    2  A    between atoms: C_3  and  O_6 
REMARK    3  A    between atoms: C_3  and  C_4 
REMARK    4  A    between atoms: C_7  and  O_6 
REMARK    5  A    between atoms: C_9  and  C_10 
REMARK    6  A    between atoms: N_15  and  C_14 
REMARK    7  A    between atoms: N_20  and  C_19 
REMARK       I    between atoms: C_22  and  N_20 
ROOT
ATOM      1  C   LIG d   1      -5.602  92.431 117.474  0.00  0.00     0.161 C 
ATOM      2  C   LIG d   1      -6.655  91.537 117.219  0.00  0.00     0.016 C 
ATOM      3  C   LIG d   1      -6.463  90.159 116.970  0.00  0.00     0.038 C 
ATOM      4  C   LIG d   1      -5.208  89.548 117.110  0.00  0.00     0.028 C 
ATOM      5  C   LIG d   1      -4.041  90.500 116.871  0.00  0.00    -0.047 C 
ATOM      6  C   LIG d   1      -4.237  91.763 117.741  0.00  0.00     0.091 C 
ENDROOT
BRANCH   1   7
ATOM      7  O   LIG d   1      -5.955  93.303 118.567  0.00  0.00    -0.368 OA
BRANCH   7   8
ATOM      8  C   LIG d   1      -5.631  92.823 119.895  0.00  0.00     0.119 C 
BRANCH   8   9
ATOM      9  C   LIG d   1      -6.960  92.546 120.624  0.00  0.00     0.028 C 
ATOM     10  C   LIG d   1      -7.979  93.683 120.439  0.00  0.00     0.006 C 
ENDBRANCH   8   9
BRANCH   8  11
ATOM     11  C   LIG d   1      -4.932  93.906 120.723  0.00  0.00     0.028 C 
ATOM     12  C   LIG d   1      -4.581  95.153 119.897  0.00  0.00     0.006 C 
ENDBRANCH   8  11
ENDBRANCH   7   8
ENDBRANCH   1   7
BRANCH   6  13
ATOM     13  N   LIG d   1      -3.183  92.784 117.504  0.00  0.00    -0.311 N 
ATOM     14  C   LIG d   1      -2.125  92.943 118.297  0.00  0.00     0.210 C 
ATOM     15  C   LIG d   1      -1.170  94.066 117.884  0.00  0.00     0.109 C 
ATOM     16  O   LIG d   1      -1.870  92.239 119.286  0.00  0.00    -0.276 OA
ATOM     17  H   LIG d   1      -3.295  93.378 116.706  0.00  0.00     0.149 HD
ENDBRANCH   6  13
BRANCH   5  18
ATOM     18  N   LIG d   1      -2.798  89.770 117.183  0.00  0.00     0.381 N 
ATOM     19  H   LIG d   1      -2.867  88.828 116.855  0.00  0.00    -0.090 HD
ATOM     20  H   LIG d   1      -2.676  89.748 118.181  0.00  0.00    -0.090 HD
ATOM     21  H   LIG d   1      -2.020  90.222 116.756  0.00  0.00    -0.090 HD
ENDBRANCH   5  18
BRANCH   3  22
ATOM     22  C   LIG d   1      -7.528  89.383 116.538  0.00  0.00     0.382 C 
ATOM     23  O   LIG d   1      -8.154  89.701 115.498  0.00  0.00    -0.241 OA
ATOM     24  O   LIG d   1      -7.899  88.394 117.199  0.00  0.00    -0.241 OA
ENDBRANCH   3  22
TORSDOF 7
ENDMDL
MODEL 4
REMARK VINA RESULT:      -4.8      1.693      5.014
REMARK  7 active torsions:
REMARK  status: ('A' for Active; 'I' for Inactive)
REMARK    1  A    between atoms: C_2  and  C_3 
REMARK    2  A    between atoms: C_3  and  O_6 
REMARK    3  A    between atoms: C_3  and  C_4 
REMARK    4  A    between atoms: C_7  and  O_6 
REMARK    5  A    between atoms: C_9  and  C_10 
REMARK    6  A    between atoms: N_15  and  C_14 
REMARK    7  A    between atoms: N_20  and  C_19 
REMARK       I    between atoms: C_22  and  N_20 
ROOT
ATOM      1  C   LIG d   1      -6.274  91.882 119.228  0.00  0.00     0.161 C 
ATOM      2  C   LIG d   1      -5.195  92.675 119.653  0.00  0.00     0.016 C 
ATOM      3  C   LIG d   1      -3.924  92.656 119.034  0.00  0.00     0.038 C 
ATOM      4  C   LIG d   1      -3.689  91.949 117.846  0.00  0.00     0.028 C 
ATOM      5  C   LIG d   1      -4.602  90.741 117.669  0.00  0.00    -0.047 C 
ATOM      6  C   LIG d   1      -6.069  91.188 117.866  0.00  0.00     0.091 C 
ENDROOT
BRANCH   1   7
ATOM      7  O   LIG d   1      -7.482  92.668 119.213  0.00  0.00    -0.368 OA
BRANCH   7   8
ATOM      8  C   LIG d   1      -7.601  93.674 120.250  0.00  0.00     0.119 C 
BRANCH   8   9
ATOM      9  C   LIG d   1      -8.834  93.317 121.102  0.00  0.00     0.028 C 
ATOM     10  C   LIG d   1      -8.518  92.267 122.181  0.00  0.00     0.006 C 
ENDBRANCH   8   9
BRANCH   8  11
ATOM     11  C   LIG d   1      -7.904  95.052 119.656  0.00  0.00     0.028 C 
ATOM     12  C   LIG d   1      -8.433  96.048 120.700  0.00  0.00     0.006 C 
ENDBRANCH   8  11
ENDBRANCH   7   8
ENDBRANCH   1   7
BRANCH   6  13
ATOM     13  N   LIG d   1      -7.023  90.050 117.793  0.00  0.00    -0.311 N 
ATOM     14  C   LIG d   1      -7.613  89.660 116.665  0.00  0.00     0.210 C 
ATOM     15  C   LIG d   1      -8.577  88.479 116.814  0.00  0.00     0.109 C 
ATOM     16  O   LIG d   1      -7.407  90.160 115.549  0.00  0.00    -0.276 OA
ATOM     17  H   LIG d   1      -7.224  89.568 118.647  0.00  0.00     0.149 HD
ENDBRANCH   6  13
BRANCH   5  18
ATOM     18  N   LIG d   1      -4.344  90.179 116.330  0.00  0.00     0.381 N 
ATOM     19  H   LIG d   1      -4.072  89.220 116.411  0.00  0.00    -0.090 HD
ATOM     20  H   LIG d   1      -3.588  90.686 115.905  0.00  0.00    -0.090 HD
ATOM     21  H   LIG d   1      -5.162  90.253 115.765  0.00  0.00    -0.090 HD
ENDBRANCH   5  18
BRANCH   3  22
ATOM     22  C   LIG d   1      -2.861  93.319 119.628  0.00  0.00     0.382 C 
ATOM     23  O   LIG d   1      -3.068  94.115 120.575  0.00  0.00    -0.241 OA
ATOM     24  O   LIG d   1      -1.701  93.165 119.198  0.00  0.00    -0.241 OA
ENDBRANCH   3  22
TORSDOF 7
ENDMDL
MODEL 5
REMARK VINA RESULT:      -4.6      2.037      4.671
REMARK  7 active torsions:
REMARK  status: ('A' for Active; 'I' for Inactive)
REMARK    1  A    between atoms: C_2  and  C_3 
REMARK    2  A    between atoms: C_3  and  O_6 
REMARK    3  A    between atoms: C_3  and  C_4 
REMARK    4  A    between atoms: C_7  and  O_6 
REMARK    5  A    between atoms: C_9  and  C_10 
REMARK    6  A    between atoms: N_15  and  C_14 
REMARK    7  A    between atoms: N_20  and  C_19 
REMARK       I    between atoms: C_22  and  N_20 
ROOT
ATOM      1  C   LIG d   1      -5.553  92.193 118.556  0.00  0.00     0.161 C 
ATOM      2  C   LIG d   1      -6.777  92.882 118.577  0.00  0.00     0.016 C 
ATOM      3  C   LIG d   1      -6.889  94.262 118.864  0.00  0.00     0.038 C 
ATOM      4  C   LIG d   1      -5.760  95.084 119.003  0.00  0.00     0.028 C 
ATOM      5  C   LIG d   1      -4.523  94.337 119.490  0.00  0.00    -0.047 C 
ATOM      6  C   LIG d   1      -4.302  93.096 118.595  0.00  0.00     0.091 C 
ENDROOT
BRANCH   1   7
ATOM      7  O   LIG d   1      -5.503  91.319 117.411  0.00  0.00    -0.368 OA
BRANCH   7   8
ATOM      8  C   LIG d   1      -5.760  89.916 117.669  0.00  0.00     0.119 C 
BRANCH   8   9
ATOM      9  C   LIG d   1      -4.639  89.108 116.986  0.00  0.00     0.028 C 
ATOM     10  C   LIG d   1      -3.490  88.769 117.951  0.00  0.00     0.006 C 
ENDBRANCH   8   9
BRANCH   8  11
ATOM     11  C   LIG d   1      -7.057  89.455 116.999  0.00  0.00     0.028 C 
ATOM     12  C   LIG d   1      -7.417  90.288 115.758  0.00  0.00     0.006 C 
ENDBRANCH   8  11
ENDBRANCH   7   8
ENDBRANCH   1   7
BRANCH   6  13
ATOM     13  N   LIG d   1      -3.160  92.263 119.054  0.00  0.00    -0.311 N 
ATOM     14  C   LIG d   1      -1.923  92.386 118.576  0.00  0.00     0.210 C 
ATOM     15  C   LIG d   1      -0.899  91.415 119.172  0.00  0.00     0.109 C 
ATOM     16  O   LIG d   1      -1.570  93.230 117.738  0.00  0.00    -0.276 OA
ATOM     17  H   LIG d   1      -3.351  91.574 119.755  0.00  0.00     0.149 HD
ENDBRANCH   6  13
BRANCH   5  18
ATOM     18  N   LIG d   1      -3.391  95.282 119.458  0.00  0.00     0.381 N 
ATOM     19  H   LIG d   1      -2.626  94.913 119.986  0.00  0.00    -0.090 HD
ATOM     20  H   LIG d   1      -3.678  96.148 119.880  0.00  0.00    -0.090 HD
ATOM     21  H   LIG d   1      -3.107  95.442 118.516  0.00  0.00    -0.090 HD
ENDBRANCH   5  18
BRANCH   3  22
ATOM     22  C   LIG d   1      -8.141  94.825 119.056  0.00  0.00     0.382 C 
ATOM     23  O   LIG d   1      -8.371  95.509 120.081  0.00  0.00    -0.241 OA
ATOM     24  O   LIG d   1      -9.058  94.619 118.237  0.00  0.00    -0.241 OA
ENDBRANCH   3  22
TORSDOF 7
ENDMDL
MODEL 6
REMARK VINA RESULT:      -4.5      2.248      3.970
REMARK  7 active torsions:
REMARK  status: ('A' for Active; 'I' for Inactive)
REMARK    1  A    between atoms: C_2  and  C_3 
REMARK    2  A    between atoms: C_3  and  O_6 
REMARK    3  A    between atoms: C_3  and  C_4 
REMARK    4  A    between atoms: C_7  and  O_6 
REMARK    5  A    between atoms: C_9  and  C_10 
REMARK    6  A    between atoms: N_15  and  C_14 
REMARK    7  A    between atoms: N_20  and  C_19 
REMARK       I    between atoms: C_22  and  N_20 
ROOT
ATOM      1  C   LIG d   1      -4.191  90.991 118.192  0.00  0.00     0.161 C 
ATOM      2  C   LIG d   1      -5.107  90.287 117.394  0.00  0.00     0.016 C 
ATOM      3  C   LIG d   1      -6.259  90.878 116.826  0.00  0.00     0.038 C 
ATOM      4  C   LIG d   1      -6.494  92.259 116.894  0.00  0.00     0.028 C 
ATOM      5  C   LIG d   1      -5.863  92.921 118.114  0.00  0.00    -0.047 C 
ATOM      6  C   LIG d   1      -4.371  92.523 118.185  0.00  0.00     0.091 C 
ENDROOT
BRANCH   1   7
ATOM      7  O   LIG d   1      -2.844  90.643 117.813  0.00  0.00    -0.368 OA
BRANCH   7   8
ATOM      8  C   LIG d   1      -2.114  89.811 118.748  0.00  0.00     0.119 C 
BRANCH   8   9
ATOM      9  C   LIG d   1      -2.261  88.350 118.279  0.00  0.00     0.028 C 
ATOM     10  C   LIG d   1      -2.750  87.421 119.402  0.00  0.00     0.006 C 
ENDBRANCH   8   9
BRANCH   8  11
ATOM     11  C   LIG d   1      -2.743  89.855 120.143  0.00  0.00     0.028 C 
ATOM     12  C   LIG d   1      -1.818  90.486 121.195  0.00  0.00     0.006 C 
ENDBRANCH   8  11
ENDBRANCH   7   8
ENDBRANCH   1   7
BRANCH   6  13
ATOM     13  N   LIG d   1      -3.699  93.061 119.397  0.00  0.00    -0.311 N 
ATOM     14  C   LIG d   1      -2.548  93.731 119.360  0.00  0.00     0.210 C 
ATOM     15  C   LIG d   1      -2.017  94.179 120.726  0.00  0.00     0.109 C 
ATOM     16  O   LIG d   1      -1.933  94.024 118.324  0.00  0.00    -0.276 OA
ATOM     17  H   LIG d   1      -4.145  92.895 120.278  0.00  0.00     0.149 HD
ENDBRANCH   6  13
BRANCH   5  18
ATOM     18  N   LIG d   1      -6.068  94.377 117.987  0.00  0.00     0.381 N 
ATOM     19  H   LIG d   1      -7.041  94.572 117.862  0.00  0.00    -0.090 HD
ATOM     20  H   LIG d   1      -5.574  94.705 117.176  0.00  0.00    -0.090 HD
ATOM     21  H   LIG d   1      -5.730  94.841 118.801  0.00  0.00    -0.090 HD
ENDBRANCH   5  18
BRANCH   3  22
ATOM     22  C   LIG d   1      -7.212  90.077 116.214  0.00  0.00     0.382 C 
ATOM     23  O   LIG d   1      -8.110  90.598 115.510  0.00  0.00    -0.241 OA
ATOM     24  O   LIG d   1      -7.211  88.844 116.394  0.00  0.00    -0.241 OA
ENDBRANCH   3  22
TORSDOF 7
ENDMDL
MODEL 7
REMARK VINA RESULT:      -4.4      2.821      6.217
REMARK  7 active torsions:
REMARK  status: ('A' for Active; 'I' for Inactive)
REMARK    1  A    between atoms: C_2  and  C_3 
REMARK    2  A    between atoms: C_3  and  O_6 
REMARK    3  A    between atoms: C_3  and  C_4 
REMARK    4  A    between atoms: C_7  and  O_6 
REMARK    5  A    between atoms: C_9  and  C_10 
REMARK    6  A    between atoms: N_15  and  C_14 
REMARK    7  A    between atoms: N_20  and  C_19 
REMARK       I    between atoms: C_22  and  N_20 
ROOT
ATOM      1  C   LIG d   1      -1.819  91.157 117.987  0.00  0.00     0.161 C 
ATOM      2  C   LIG d   1      -0.426  91.018 118.095  0.00  0.00     0.016 C 
ATOM      3  C   LIG d   1       0.462  92.116 118.164  0.00  0.00     0.038 C 
ATOM      4  C   LIG d   1       0.002  93.436 118.283  0.00  0.00     0.028 C 
ATOM      5  C   LIG d   1      -1.378  93.654 117.670  0.00  0.00    -0.047 C 
ATOM      6  C   LIG d   1      -2.348  92.587 118.227  0.00  0.00     0.091 C 
ENDROOT
BRANCH   1   7
ATOM      7  O   LIG d   1      -2.473  90.226 118.873  0.00  0.00    -0.368 OA
BRANCH   7   8
ATOM      8  C   LIG d   1      -2.991  89.020 118.261  0.00  0.00     0.119 C 
BRANCH   8   9
ATOM      9  C   LIG d   1      -4.517  89.184 118.132  0.00  0.00     0.028 C 
ATOM     10  C   LIG d   1      -4.977  89.266 116.667  0.00  0.00     0.006 C 
ENDBRANCH   8   9
BRANCH   8  11
ATOM     11  C   LIG d   1      -2.789  87.803 119.169  0.00  0.00     0.028 C 
ATOM     12  C   LIG d   1      -1.337  87.298 119.175  0.00  0.00     0.006 C 
ENDBRANCH   8  11
ENDBRANCH   7   8
ENDBRANCH   1   7
BRANCH   6  13
ATOM     13  N   LIG d   1      -3.699  92.675 117.616  0.00  0.00    -0.311 N 
ATOM     14  C   LIG d   1      -4.823  92.751 118.328  0.00  0.00     0.210 C 
ATOM     15  C   LIG d   1      -6.110  92.814 117.500  0.00  0.00     0.109 C 
ATOM     16  O   LIG d   1      -4.873  92.804 119.566  0.00  0.00    -0.276 OA
ATOM     17  H   LIG d   1      -3.749  92.670 116.616  0.00  0.00     0.149 HD
ENDBRANCH   6  13
BRANCH   5  18
ATOM     18  N   LIG d   1      -1.793  95.033 117.986  0.00  0.00     0.381 N 
ATOM     19  H   LIG d   1      -2.234  95.058 118.883  0.00  0.00    -0.090 HD
ATOM     20  H   LIG d   1      -2.460  95.337 117.299  0.00  0.00    -0.090 HD
ATOM     21  H   LIG d   1      -1.001  95.638 117.980  0.00  0.00    -0.090 HD
ENDBRANCH   5  18
BRANCH   3  22
ATOM     22  C   LIG d   1       1.829  91.901 118.074  0.00  0.00     0.382 C 
ATOM     23  O   LIG d   1       2.328  90.842 118.525  0.00  0.00    -0.241 OA
ATOM     24  O   LIG d   1       2.575  92.773 117.588  0.00  0.00    -0.241 OA
ENDBRANCH   3  22
TORSDOF 7
ENDMDL
MODEL 8
REMARK VINA RESULT:      -4.3      3.392      5.095
REMARK  7 active torsions:
REMARK  status: ('A' for Active; 'I' for Inactive)
REMARK    1  A    between atoms: C_2  and  C_3 
REMARK    2  A    between atoms: C_3  and  O_6 
REMARK    3  A    between atoms: C_3  and  C_4 
REMARK    4  A    between atoms: C_7  and  O_6 
REMARK    5  A    between atoms: C_9  and  C_10 
REMARK    6  A    between atoms: N_15  and  C_14 
REMARK    7  A    between atoms: N_20  and  C_19 
REMARK       I    between atoms: C_22  and  N_20 
ROOT
ATOM      1  C   LIG d   1      -2.999  89.908 118.942  0.00  0.00     0.161 C 
ATOM      2  C   LIG d   1      -4.391  89.976 118.762  0.00  0.00     0.016 C 
ATOM      3  C   LIG d   1      -5.048  91.086 118.183  0.00  0.00     0.038 C 
ATOM      4  C   LIG d   1      -4.338  92.148 117.604  0.00  0.00     0.028 C 
ATOM      5  C   LIG d   1      -2.956  92.357 118.213  0.00  0.00    -0.047 C 
ATOM      6  C   LIG d   1      -2.199  91.009 118.214  0.00  0.00     0.091 C 
ENDROOT
BRANCH   1   7
ATOM      7  O   LIG d   1      -2.520  88.604 118.558  0.00  0.00    -0.368 OA
BRANCH   7   8
ATOM      8  C   LIG d   1      -1.827  87.852 119.585  0.00  0.00     0.119 C 
BRANCH   8   9
ATOM      9  C   LIG d   1      -0.645  87.128 118.911  0.00  0.00     0.028 C 
ATOM     10  C   LIG d   1      -0.328  87.695 117.517  0.00  0.00     0.006 C 
ENDBRANCH   8   9
BRANCH   8  11
ATOM     11  C   LIG d   1      -2.712  86.740 120.155  0.00  0.00     0.028 C 
ATOM     12  C   LIG d   1      -1.943  85.432 120.398  0.00  0.00     0.006 C 
ENDBRANCH   8  11
ENDBRANCH   7   8
ENDBRANCH   1   7
BRANCH   6  13
ATOM     13  N   LIG d   1      -0.869  91.106 118.871  0.00  0.00    -0.311 N 
ATOM     14  C   LIG d   1       0.262  91.333 118.205  0.00  0.00     0.210 C 
ATOM     15  C   LIG d   1       1.525  91.376 119.072  0.00  0.00     0.109 C 
ATOM     16  O   LIG d   1       0.336  91.535 116.984  0.00  0.00    -0.276 OA
ATOM     17  H   LIG d   1      -0.841  90.985 119.864  0.00  0.00     0.149 HD
ENDBRANCH   6  13
BRANCH   5  18
ATOM     18  N   LIG d   1      -2.274  93.401 117.425  0.00  0.00     0.381 N 
ATOM     19  H   LIG d   1      -1.799  92.985 116.650  0.00  0.00    -0.090 HD
ATOM     20  H   LIG d   1      -1.592  93.854 118.007  0.00  0.00    -0.090 HD
ATOM     21  H   LIG d   1      -2.938  94.069 117.098  0.00  0.00    -0.090 HD
ENDBRANCH   5  18
BRANCH   3  22
ATOM     22  C   LIG d   1      -6.432  91.160 118.217  0.00  0.00     0.382 C 
ATOM     23  O   LIG d   1      -7.113  90.546 117.361  0.00  0.00    -0.241 OA
ATOM     24  O   LIG d   1      -7.007  91.868 119.066  0.00  0.00    -0.241 OA
ENDBRANCH   3  22
TORSDOF 7
ENDMDL
MODEL 9
REMARK VINA RESULT:      -4.2      1.985      3.133
REMARK  7 active torsions:
REMARK  status: ('A' for Active; 'I' for Inactive)
REMARK    1  A    between atoms: C_2  and  C_3 
REMARK    2  A    between atoms: C_3  and  O_6 
REMARK    3  A    between atoms: C_3  and  C_4 
REMARK    4  A    between atoms: C_7  and  O_6 
REMARK    5  A    between atoms: C_9  and  C_10 
REMARK    6  A    between atoms: N_15  and  C_14 
REMARK    7  A    between atoms: N_20  and  C_19 
REMARK       I    between atoms: C_22  and  N_20 
ROOT
ATOM      1  C   LIG d   1      -3.754  92.085 118.191  0.00  0.00     0.161 C 
ATOM      2  C   LIG d   1      -5.077  91.648 118.008  0.00  0.00     0.016 C 
ATOM      3  C   LIG d   1      -5.416  90.323 117.648  0.00  0.00     0.038 C 
ATOM      4  C   LIG d   1      -4.457  89.301 117.593  0.00  0.00     0.028 C 
ATOM      5  C   LIG d   1      -3.053  89.804 117.276  0.00  0.00    -0.047 C 
ATOM      6  C   LIG d   1      -2.703  90.957 118.244  0.00  0.00     0.091 C 
ENDROOT
BRANCH   1   7
ATOM      7  O   LIG d   1      -3.670  92.905 119.373  0.00  0.00    -0.368 OA
BRANCH   7   8
ATOM      8  C   LIG d   1      -3.545  94.331 119.151  0.00  0.00     0.119 C 
BRANCH   8   9
ATOM      9  C   LIG d   1      -2.078  94.716 119.425  0.00  0.00     0.028 C 
ATOM     10  C   LIG d   1      -1.337  95.149 118.148  0.00  0.00     0.006 C 
ENDBRANCH   8   9
BRANCH   8  11
ATOM     11  C   LIG d   1      -4.370  95.127 120.167  0.00  0.00     0.028 C 
ATOM     12  C   LIG d   1      -5.254  96.198 119.509  0.00  0.00     0.006 C 
ENDBRANCH   8  11
ENDBRANCH   7   8
ENDBRANCH   1   7
BRANCH   6  13
ATOM     13  N   LIG d   1      -1.378  91.563 117.948  0.00  0.00    -0.311 N 
ATOM     14  C   LIG d   1      -0.255  91.212 118.573  0.00  0.00     0.210 C 
ATOM     15  C   LIG d   1       0.997  91.975 118.130  0.00  0.00     0.109 C 
ATOM     16  O   LIG d   1      -0.172  90.318 119.429  0.00  0.00    -0.276 OA
ATOM     17  H   LIG d   1      -1.349  92.274 117.245  0.00  0.00     0.149 HD
ENDBRANCH   6  13
BRANCH   5  18
ATOM     18  N   LIG d   1      -2.133  88.656 117.386  0.00  0.00     0.381 N 
ATOM     19  H   LIG d   1      -1.971  88.444 118.350  0.00  0.00    -0.090 HD
ATOM     20  H   LIG d   1      -1.255  88.902 116.965  0.00  0.00    -0.090 HD
ATOM     21  H   LIG d   1      -2.521  87.863 116.925  0.00  0.00    -0.090 HD
ENDBRANCH   5  18
BRANCH   3  22
ATOM     22  C   LIG d   1      -6.724  90.020 117.298  0.00  0.00     0.382 C 
ATOM     23  O   LIG d   1      -7.205  88.898 117.587  0.00  0.00    -0.241 OA
ATOM     24  O   LIG d   1      -7.413  90.837 116.660  0.00  0.00    -0.241 OA
ENDBRANCH   3  22
TORSDOF 7
ENDMDL
