MODEL 1
REMARK VINA RESULT:      -4.9      0.000      0.000
REMARK  7 active torsions:
REMARK  status: ('A' for Active; 'I' for Inactive)
REMARK    1  A    between atoms: C_2  and  C_3 
REMARK    2  A    between atoms: C_3  and  O_6 
REMARK    3  A    between atoms: C_3  and  C_4 
REMARK    4  A    between atoms: C_7  and  O_6 
REMARK    5  A    between atoms: C_9  and  C_10 
REMARK    6  A    between atoms: N_15  and  C_14 
REMARK    7  A    between atoms: N_20  and  C_19 
REMARK       I    between atoms: C_22  and  N_20 
ROOT
ATOM      1  C   LIG d   1      -5.159  92.929 118.832  0.00  0.00     0.161 C 
ATOM      2  C   LIG d   1      -6.379  93.625 118.856  0.00  0.00     0.016 C 
ATOM      3  C   LIG d   1      -7.398  93.443 117.893  0.00  0.00     0.038 C 
ATOM      4  C   LIG d   1      -7.327  92.435 116.920  0.00  0.00     0.028 C 
ATOM      5  C   LIG d   1      -5.899  92.051 116.549  0.00  0.00    -0.047 C 
ATOM      6  C   LIG d   1      -5.109  91.746 117.842  0.00  0.00     0.091 C 
ENDROOT
BRANCH   1   7
ATOM      7  O   LIG d   1      -4.823  92.485 120.161  0.00  0.00    -0.368 OA
BRANCH   7   8
ATOM      8  C   LIG d   1      -3.698  93.148 120.790  0.00  0.00     0.119 C 
BRANCH   8   9
ATOM      9  C   LIG d   1      -3.085  94.105 119.749  0.00  0.00     0.028 C 
ATOM     10  C   LIG d   1      -1.600  93.808 119.482  0.00  0.00     0.006 C 
ENDBRANCH   8   9
BRANCH   8  11
ATOM     11  C   LIG d   1      -2.585  92.153 121.131  0.00  0.00     0.028 C 
ATOM     12  C   LIG d   1      -3.117  90.859 121.768  0.00  0.00     0.006 C 
ENDBRANCH   8  11
ENDBRANCH   7   8
ENDBRANCH   1   7
BRANCH   6  13
ATOM     13  N   LIG d   1      -3.679  91.443 117.575  0.00  0.00    -0.311 N 
ATOM     14  C   LIG d   1      -3.075  90.331 117.991  0.00  0.00     0.210 C 
ATOM     15  C   LIG d   1      -1.591  90.226 117.625  0.00  0.00     0.109 C 
ATOM     16  O   LIG d   1      -3.635  89.407 118.599  0.00  0.00    -0.276 OA
ATOM     17  H   LIG d   1      -3.157  92.125 117.060  0.00  0.00     0.149 HD
ENDBRANCH   6  13
BRANCH   5  18
ATOM     18  N   LIG d   1      -5.972  90.899 115.631  0.00  0.00     0.381 N 
ATOM     19  H   LIG d   1      -6.042  90.050 116.157  0.00  0.00    -0.090 HD
ATOM     20  H   LIG d   1      -5.128  90.863 115.086  0.00  0.00    -0.090 HD
ATOM     21  H   LIG d   1      -6.761  90.991 115.029  0.00  0.00    -0.090 HD
ENDBRANCH   5  18
BRANCH   3  22
ATOM     22  C   LIG d   1      -8.487  94.302 117.874  0.00  0.00     0.382 C 
ATOM     23  O   LIG d   1      -9.643  93.845 117.707  0.00  0.00    -0.241 OA
ATOM     24  O   LIG d   1      -8.322  95.532 117.977  0.00  0.00    -0.241 OA
ENDBRANCH   3  22
TORSDOF 7
ENDMDL
MODEL 2
REMARK VINA RESULT:      -4.8      2.203      3.955
REMARK  7 active torsions:
REMARK  status: ('A' for Active; 'I' for Inactive)
REMARK    1  A    between atoms: C_2  and  C_3 
REMARK    2  A    between atoms: C_3  and  O_6 
REMARK    3  A    between atoms: C_3  and  C_4 
REMARK    4  A    between atoms: C_7  and  O_6 
REMARK    5  A    between atoms: C_9  and  C_10 
REMARK    6  A    between atoms: N_15  and  C_14 
REMARK    7  A    between atoms: N_20  and  C_19 
REMARK       I    between atoms: C_22  and  N_20 
ROOT
ATOM      1  C   LIG d   1      -5.745  93.182 118.740  0.00  0.00     0.161 C 
ATOM      2  C   LIG d   1      -6.675  92.614 117.853  0.00  0.00     0.016 C 
ATOM      3  C   LIG d   1      -6.334  91.640 116.886  0.00  0.00     0.038 C 
ATOM      4  C   LIG d   1      -5.060  91.054 116.841  0.00  0.00     0.028 C 
ATOM      5  C   LIG d   1      -3.958  91.957 117.384  0.00  0.00    -0.047 C 
ATOM      6  C   LIG d   1      -4.375  92.474 118.780  0.00  0.00     0.091 C 
ENDROOT
BRANCH   1   7
ATOM      7  O   LIG d   1      -6.312  93.252 120.063  0.00  0.00    -0.368 OA
BRANCH   7   8
ATOM      8  C   LIG d   1      -6.425  94.577 120.638  0.00  0.00     0.119 C 
BRANCH   8   9
ATOM      9  C   LIG d   1      -7.894  94.773 121.062  0.00  0.00     0.028 C 
ATOM     10  C   LIG d   1      -8.773  95.291 119.912  0.00  0.00     0.006 C 
ENDBRANCH   8   9
BRANCH   8  11
ATOM     11  C   LIG d   1      -6.157  95.663 119.593  0.00  0.00     0.028 C 
ATOM     12  C   LIG d   1      -5.038  96.630 120.012  0.00  0.00     0.006 C 
ENDBRANCH   8  11
ENDBRANCH   7   8
ENDBRANCH   1   7
BRANCH   6  13
ATOM     13  N   LIG d   1      -3.390  93.432 119.347  0.00  0.00    -0.311 N 
ATOM     14  C   LIG d   1      -2.403  93.071 120.166  0.00  0.00     0.210 C 
ATOM     15  C   LIG d   1      -1.513  94.219 120.651  0.00  0.00     0.109 C 
ATOM     16  O   LIG d   1      -2.161  91.904 120.511  0.00  0.00    -0.276 OA
ATOM     17  H   LIG d   1      -3.494  94.395 119.095  0.00  0.00     0.149 HD
ENDBRANCH   6  13
BRANCH   5  18
ATOM     18  N   LIG d   1      -2.709  91.173 117.407  0.00  0.00     0.381 N 
ATOM     19  H   LIG d   1      -1.962  91.735 117.761  0.00  0.00    -0.090 HD
ATOM     20  H   LIG d   1      -2.480  90.899 116.468  0.00  0.00    -0.090 HD
ATOM     21  H   LIG d   1      -2.825  90.364 117.977  0.00  0.00    -0.090 HD
ENDBRANCH   5  18
BRANCH   3  22
ATOM     22  C   LIG d   1      -7.262  91.273 115.924  0.00  0.00     0.382 C 
ATOM     23  O   LIG d   1      -8.048  92.129 115.451  0.00  0.00    -0.241 OA
ATOM     24  O   LIG d   1      -7.353  90.087 115.554  0.00  0.00    -0.241 OA
ENDBRANCH   3  22
TORSDOF 7
ENDMDL
MODEL 3
REMARK VINA RESULT:      -4.8      2.538      3.879
REMARK  7 active torsions:
REMARK  status: ('A' for Active; 'I' for Inactive)
REMARK    1  A    between atoms: C_2  and  C_3 
REMARK    2  A    between atoms: C_3  and  O_6 
REMARK    3  A    between atoms: C_3  and  C_4 
REMARK    4  A    between atoms: C_7  and  O_6 
REMARK    5  A    between atoms: C_9  and  C_10 
REMARK    6  A    between atoms: N_15  and  C_14 
REMARK    7  A    between atoms: N_20  and  C_19 
REMARK       I    between atoms: C_22  and  N_20 
ROOT
ATOM      1  C   LIG d   1      -4.334  92.105 118.132  0.00  0.00     0.161 C 
ATOM      2  C   LIG d   1      -5.083  91.557 117.077  0.00  0.00     0.016 C 
ATOM      3  C   LIG d   1      -6.437  91.882 116.833  0.00  0.00     0.038 C 
ATOM      4  C   LIG d   1      -7.095  92.898 117.542  0.00  0.00     0.028 C 
ATOM      5  C   LIG d   1      -6.535  93.120 118.943  0.00  0.00    -0.047 C 
ATOM      6  C   LIG d   1      -5.002  93.298 118.848  0.00  0.00     0.091 C 
ENDROOT
BRANCH   1   7
ATOM      7  O   LIG d   1      -3.023  92.474 117.660  0.00  0.00    -0.368 OA
BRANCH   7   8
ATOM      8  C   LIG d   1      -1.903  91.908 118.384  0.00  0.00     0.119 C 
BRANCH   8   9
ATOM      9  C   LIG d   1      -0.805  92.987 118.456  0.00  0.00     0.028 C 
ATOM     10  C   LIG d   1      -1.235  94.307 117.793  0.00  0.00     0.006 C 
ENDBRANCH   8   9
BRANCH   8  11
ATOM     11  C   LIG d   1      -1.275  90.742 117.615  0.00  0.00     0.028 C 
ATOM     12  C   LIG d   1      -1.622  89.373 118.220  0.00  0.00     0.006 C 
ENDBRANCH   8  11
ENDBRANCH   7   8
ENDBRANCH   1   7
BRANCH   6  13
ATOM     13  N   LIG d   1      -4.363  93.436 120.182  0.00  0.00    -0.311 N 
ATOM     14  C   LIG d   1      -3.755  94.548 120.592  0.00  0.00     0.210 C 
ATOM     15  C   LIG d   1      -3.145  94.472 121.996  0.00  0.00     0.109 C 
ATOM     16  O   LIG d   1      -3.690  95.601 119.939  0.00  0.00    -0.276 OA
ATOM     17  H   LIG d   1      -4.397  92.640 120.789  0.00  0.00     0.149 HD
ENDBRANCH   6  13
BRANCH   5  18
ATOM     18  N   LIG d   1      -7.219  94.294 119.516  0.00  0.00     0.381 N 
ATOM     19  H   LIG d   1      -7.548  94.887 118.780  0.00  0.00    -0.090 HD
ATOM     20  H   LIG d   1      -6.562  94.815 120.070  0.00  0.00    -0.090 HD
ATOM     21  H   LIG d   1      -7.983  94.001 120.083  0.00  0.00    -0.090 HD
ENDBRANCH   5  18
BRANCH   3  22
ATOM     22  C   LIG d   1      -7.159  91.158 115.897  0.00  0.00     0.382 C 
ATOM     23  O   LIG d   1      -6.690  90.092 115.430  0.00  0.00    -0.241 OA
ATOM     24  O   LIG d   1      -8.254  91.581 115.479  0.00  0.00    -0.241 OA
ENDBRANCH   3  22
TORSDOF 7
ENDMDL
MODEL 4
REMARK VINA RESULT:      -4.8      2.348      4.108
REMARK  7 active torsions:
REMARK  status: ('A' for Active; 'I' for Inactive)
REMARK    1  A    between atoms: C_2  and  C_3 
REMARK    2  A    between atoms: C_3  and  O_6 
REMARK    3  A    between atoms: C_3  and  C_4 
REMARK    4  A    between atoms: C_7  and  O_6 
REMARK    5  A    between atoms: C_9  and  C_10 
REMARK    6  A    between atoms: N_15  and  C_14 
REMARK    7  A    between atoms: N_20  and  C_19 
REMARK       I    between atoms: C_22  and  N_20 
ROOT
ATOM      1  C   LIG d   1      -5.925  93.446 118.663  0.00  0.00     0.161 C 
ATOM      2  C   LIG d   1      -6.784  92.770 117.781  0.00  0.00     0.016 C 
ATOM      3  C   LIG d   1      -6.351  91.754 116.898  0.00  0.00     0.038 C 
ATOM      4  C   LIG d   1      -5.047  91.238 116.943  0.00  0.00     0.028 C 
ATOM      5  C   LIG d   1      -4.019  92.236 117.465  0.00  0.00    -0.047 C 
ATOM      6  C   LIG d   1      -4.522  92.820 118.805  0.00  0.00     0.091 C 
ENDROOT
BRANCH   1   7
ATOM      7  O   LIG d   1      -6.551  93.572 119.955  0.00  0.00    -0.368 OA
BRANCH   7   8
ATOM      8  C   LIG d   1      -7.420  94.718 120.133  0.00  0.00     0.119 C 
BRANCH   8   9
ATOM      9  C   LIG d   1      -6.651  95.962 119.647  0.00  0.00     0.028 C 
ATOM     10  C   LIG d   1      -7.465  96.803 118.649  0.00  0.00     0.006 C 
ENDBRANCH   8   9
BRANCH   8  11
ATOM     11  C   LIG d   1      -7.708  94.974 121.615  0.00  0.00     0.028 C 
ATOM     12  C   LIG d   1      -9.199  95.216 121.898  0.00  0.00     0.006 C 
ENDBRANCH   8  11
ENDBRANCH   7   8
ENDBRANCH   1   7
BRANCH   6  13
ATOM     13  N   LIG d   1      -3.615  93.867 119.343  0.00  0.00    -0.311 N 
ATOM     14  C   LIG d   1      -2.643  93.616 120.219  0.00  0.00     0.210 C 
ATOM     15  C   LIG d   1      -1.837  94.843 120.659  0.00  0.00     0.109 C 
ATOM     16  O   LIG d   1      -2.351  92.490 120.648  0.00  0.00    -0.276 OA
ATOM     17  H   LIG d   1      -3.761  94.805 119.024  0.00  0.00     0.149 HD
ENDBRANCH   6  13
BRANCH   5  18
ATOM     18  N   LIG d   1      -2.732  91.526 117.591  0.00  0.00     0.381 N 
ATOM     19  H   LIG d   1      -2.469  91.144 116.704  0.00  0.00    -0.090 HD
ATOM     20  H   LIG d   1      -2.841  90.768 118.241  0.00  0.00    -0.090 HD
ATOM     21  H   LIG d   1      -2.027  92.151 117.914  0.00  0.00    -0.090 HD
ENDBRANCH   5  18
BRANCH   3  22
ATOM     22  C   LIG d   1      -7.216  91.272 115.928  0.00  0.00     0.382 C 
ATOM     23  O   LIG d   1      -7.098  90.094 115.511  0.00  0.00    -0.241 OA
ATOM     24  O   LIG d   1      -8.086  92.014 115.431  0.00  0.00    -0.241 OA
ENDBRANCH   3  22
TORSDOF 7
ENDMDL
MODEL 5
REMARK VINA RESULT:      -4.8      2.671      4.658
REMARK  7 active torsions:
REMARK  status: ('A' for Active; 'I' for Inactive)
REMARK    1  A    between atoms: C_2  and  C_3 
REMARK    2  A    between atoms: C_3  and  O_6 
REMARK    3  A    between atoms: C_3  and  C_4 
REMARK    4  A    between atoms: C_7  and  O_6 
REMARK    5  A    between atoms: C_9  and  C_10 
REMARK    6  A    between atoms: N_15  and  C_14 
REMARK    7  A    between atoms: N_20  and  C_19 
REMARK       I    between atoms: C_22  and  N_20 
ROOT
ATOM      1  C   LIG d   1      -5.683  92.915 118.786  0.00  0.00     0.161 C 
ATOM      2  C   LIG d   1      -5.737  91.946 117.771  0.00  0.00     0.016 C 
ATOM      3  C   LIG d   1      -6.766  91.891 116.803  0.00  0.00     0.038 C 
ATOM      4  C   LIG d   1      -7.736  92.899 116.692  0.00  0.00     0.028 C 
ATOM      5  C   LIG d   1      -8.012  93.619 118.008  0.00  0.00    -0.047 C 
ATOM      6  C   LIG d   1      -6.670  94.088 118.615  0.00  0.00     0.091 C 
ENDROOT
BRANCH   1   7
ATOM      7  O   LIG d   1      -4.335  93.410 118.918  0.00  0.00    -0.368 OA
BRANCH   7   8
ATOM      8  C   LIG d   1      -3.286  92.536 118.434  0.00  0.00     0.119 C 
BRANCH   8   9
ATOM      9  C   LIG d   1      -2.593  91.919 119.665  0.00  0.00     0.028 C 
ATOM     10  C   LIG d   1      -2.997  90.452 119.891  0.00  0.00     0.006 C 
ENDBRANCH   8   9
BRANCH   8  11
ATOM     11  C   LIG d   1      -2.193  93.327 117.708  0.00  0.00     0.028 C 
ATOM     12  C   LIG d   1      -2.088  94.781 118.193  0.00  0.00     0.006 C 
ENDBRANCH   8  11
ENDBRANCH   7   8
ENDBRANCH   1   7
BRANCH   6  13
ATOM     13  N   LIG d   1      -6.843  94.729 119.944  0.00  0.00    -0.311 N 
ATOM     14  C   LIG d   1      -6.975  96.044 120.113  0.00  0.00     0.210 C 
ATOM     15  C   LIG d   1      -7.121  96.498 121.569  0.00  0.00     0.109 C 
ATOM     16  O   LIG d   1      -7.018  96.874 119.193  0.00  0.00    -0.276 OA
ATOM     17  H   LIG d   1      -6.851  94.126 120.744  0.00  0.00     0.149 HD
ENDBRANCH   6  13
BRANCH   5  18
ATOM     18  N   LIG d   1      -8.937  94.732 117.720  0.00  0.00     0.381 N 
ATOM     19  H   LIG d   1      -8.622  95.562 118.182  0.00  0.00    -0.090 HD
ATOM     20  H   LIG d   1      -9.847  94.499 118.076  0.00  0.00    -0.090 HD
ATOM     21  H   LIG d   1      -8.987  94.889 116.737  0.00  0.00    -0.090 HD
ENDBRANCH   5  18
BRANCH   3  22
ATOM     22  C   LIG d   1      -6.855  90.796 115.956  0.00  0.00     0.382 C 
ATOM     23  O   LIG d   1      -7.966  90.251 115.751  0.00  0.00    -0.241 OA
ATOM     24  O   LIG d   1      -5.832  90.319 115.430  0.00  0.00    -0.241 OA
ENDBRANCH   3  22
TORSDOF 7
ENDMDL
MODEL 6
REMARK VINA RESULT:      -4.3      2.499      4.945
REMARK  7 active torsions:
REMARK  status: ('A' for Active; 'I' for Inactive)
REMARK    1  A    between atoms: C_2  and  C_3 
REMARK    2  A    between atoms: C_3  and  O_6 
REMARK    3  A    between atoms: C_3  and  C_4 
REMARK    4  A    between atoms: C_7  and  O_6 
REMARK    5  A    between atoms: C_9  and  C_10 
REMARK    6  A    between atoms: N_15  and  C_14 
REMARK    7  A    between atoms: N_20  and  C_19 
REMARK       I    between atoms: C_22  and  N_20 
ROOT
ATOM      1  C   LIG d   1      -5.843  93.519 119.337  0.00  0.00     0.161 C 
ATOM      2  C   LIG d   1      -5.235  92.577 118.491  0.00  0.00     0.016 C 
ATOM      3  C   LIG d   1      -5.860  92.047 117.339  0.00  0.00     0.038 C 
ATOM      4  C   LIG d   1      -7.086  92.540 116.867  0.00  0.00     0.028 C 
ATOM      5  C   LIG d   1      -7.964  93.130 117.966  0.00  0.00    -0.047 C 
ATOM      6  C   LIG d   1      -7.135  94.151 118.777  0.00  0.00     0.091 C 
ENDROOT
BRANCH   1   7
ATOM      7  O   LIG d   1      -4.895  94.546 119.688  0.00  0.00    -0.368 OA
BRANCH   7   8
ATOM      8  C   LIG d   1      -3.497  94.211 119.505  0.00  0.00     0.119 C 
BRANCH   8   9
ATOM      9  C   LIG d   1      -2.864  94.085 120.905  0.00  0.00     0.028 C 
ATOM     10  C   LIG d   1      -3.678  94.818 121.985  0.00  0.00     0.006 C 
ENDBRANCH   8   9
BRANCH   8  11
ATOM     11  C   LIG d   1      -2.737  95.349 118.817  0.00  0.00     0.028 C 
ATOM     12  C   LIG d   1      -1.232  95.334 119.129  0.00  0.00     0.006 C 
ENDBRANCH   8  11
ENDBRANCH   7   8
ENDBRANCH   1   7
BRANCH   6  13
ATOM     13  N   LIG d   1      -7.894  94.713 119.925  0.00  0.00    -0.311 N 
ATOM     14  C   LIG d   1      -8.304  95.979 119.984  0.00  0.00     0.210 C 
ATOM     15  C   LIG d   1      -9.053  96.357 121.265  0.00  0.00     0.109 C 
ATOM     16  O   LIG d   1      -8.146  96.816 119.082  0.00  0.00    -0.276 OA
ATOM     17  H   LIG d   1      -8.094  94.094 120.687  0.00  0.00     0.149 HD
ENDBRANCH   6  13
BRANCH   5  18
ATOM     18  N   LIG d   1      -9.146  93.729 117.318  0.00  0.00     0.381 N 
ATOM     19  H   LIG d   1      -9.761  94.102 118.013  0.00  0.00    -0.090 HD
ATOM     20  H   LIG d   1      -9.638  93.013 116.813  0.00  0.00    -0.090 HD
ATOM     21  H   LIG d   1      -8.863  94.451 116.693  0.00  0.00    -0.090 HD
ENDBRANCH   5  18
BRANCH   3  22
ATOM     22  C   LIG d   1      -5.275  90.984 116.667  0.00  0.00     0.382 C 
ATOM     23  O   LIG d   1      -5.807  90.533 115.624  0.00  0.00    -0.241 OA
ATOM     24  O   LIG d   1      -4.247  90.443 117.115  0.00  0.00    -0.241 OA
ENDBRANCH   3  22
TORSDOF 7
ENDMDL
MODEL 7
REMARK VINA RESULT:      -4.2      3.236      6.487
REMARK  7 active torsions:
REMARK  status: ('A' for Active; 'I' for Inactive)
REMARK    1  A    between atoms: C_2  and  C_3 
REMARK    2  A    between atoms: C_3  and  O_6 
REMARK    3  A    between atoms: C_3  and  C_4 
REMARK    4  A    between atoms: C_7  and  O_6 
REMARK    5  A    between atoms: C_9  and  C_10 
REMARK    6  A    between atoms: N_15  and  C_14 
REMARK    7  A    between atoms: N_20  and  C_19 
REMARK       I    between atoms: C_22  and  N_20 
ROOT
ATOM      1  C   LIG d   1      -0.847  91.665 118.056  0.00  0.00     0.161 C 
ATOM      2  C   LIG d   1       0.434  92.148 118.373  0.00  0.00     0.016 C 
ATOM      3  C   LIG d   1       0.721  93.518 118.573  0.00  0.00     0.038 C 
ATOM      4  C   LIG d   1      -0.290  94.489 118.620  0.00  0.00     0.028 C 
ATOM      5  C   LIG d   1      -1.525  94.116 117.807  0.00  0.00    -0.047 C 
ATOM      6  C   LIG d   1      -1.984  92.696 118.212  0.00  0.00     0.091 C 
ENDROOT
BRANCH   1   7
ATOM      7  O   LIG d   1      -1.130  90.485 118.835  0.00  0.00    -0.368 OA
BRANCH   7   8
ATOM      8  C   LIG d   1      -1.532  89.311 118.088  0.00  0.00     0.119 C 
BRANCH   8   9
ATOM      9  C   LIG d   1      -2.732  88.683 118.823  0.00  0.00     0.028 C 
ATOM     10  C   LIG d   1      -3.023  89.372 120.167  0.00  0.00     0.006 C 
ENDBRANCH   8   9
BRANCH   8  11
ATOM     11  C   LIG d   1      -0.439  88.237 118.107  0.00  0.00     0.028 C 
ATOM     12  C   LIG d   1       0.516  88.381 119.302  0.00  0.00     0.006 C 
ENDBRANCH   8  11
ENDBRANCH   7   8
ENDBRANCH   1   7
BRANCH   6  13
ATOM     13  N   LIG d   1      -3.137  92.220 117.405  0.00  0.00    -0.311 N 
ATOM     14  C   LIG d   1      -4.401  92.295 117.816  0.00  0.00     0.210 C 
ATOM     15  C   LIG d   1      -5.435  91.729 116.838  0.00  0.00     0.109 C 
ATOM     16  O   LIG d   1      -4.768  92.806 118.886  0.00  0.00    -0.276 OA
ATOM     17  H   LIG d   1      -2.933  91.820 116.510  0.00  0.00     0.149 HD
ENDBRANCH   6  13
BRANCH   5  18
ATOM     18  N   LIG d   1      -2.550  95.147 118.055  0.00  0.00     0.381 N 
ATOM     19  H   LIG d   1      -3.289  94.764 118.610  0.00  0.00    -0.090 HD
ATOM     20  H   LIG d   1      -2.936  95.440 117.174  0.00  0.00    -0.090 HD
ATOM     21  H   LIG d   1      -2.143  95.927 118.523  0.00  0.00    -0.090 HD
ENDBRANCH   5  18
BRANCH   3  22
ATOM     22  C   LIG d   1       2.039  93.934 118.690  0.00  0.00     0.382 C 
ATOM     23  O   LIG d   1       2.890  93.564 117.846  0.00  0.00    -0.241 OA
ATOM     24  O   LIG d   1       2.396  94.638 119.654  0.00  0.00    -0.241 OA
ENDBRANCH   3  22
TORSDOF 7
ENDMDL
MODEL 8
REMARK VINA RESULT:      -4.0      2.865      6.151
REMARK  7 active torsions:
REMARK  status: ('A' for Active; 'I' for Inactive)
REMARK    1  A    between atoms: C_2  and  C_3 
REMARK    2  A    between atoms: C_3  and  O_6 
REMARK    3  A    between atoms: C_3  and  C_4 
REMARK    4  A    between atoms: C_7  and  O_6 
REMARK    5  A    between atoms: C_9  and  C_10 
REMARK    6  A    between atoms: N_15  and  C_14 
REMARK    7  A    between atoms: N_20  and  C_19 
REMARK       I    between atoms: C_22  and  N_20 
ROOT
ATOM      1  C   LIG d   1      -1.754  90.434 117.814  0.00  0.00     0.161 C 
ATOM      2  C   LIG d   1      -0.537  90.752 118.441  0.00  0.00     0.016 C 
ATOM      3  C   LIG d   1      -0.256  92.021 118.996  0.00  0.00     0.038 C 
ATOM      4  C   LIG d   1      -1.236  93.020 119.097  0.00  0.00     0.028 C 
ATOM      5  C   LIG d   1      -2.318  92.917 118.027  0.00  0.00    -0.047 C 
ATOM      6  C   LIG d   1      -2.875  91.475 118.013  0.00  0.00     0.091 C 
ENDROOT
BRANCH   1   7
ATOM      7  O   LIG d   1      -2.198  89.131 118.242  0.00  0.00    -0.368 OA
BRANCH   7   8
ATOM      8  C   LIG d   1      -1.737  88.696 119.544  0.00  0.00     0.119 C 
BRANCH   8   9
ATOM      9  C   LIG d   1      -1.255  87.239 119.402  0.00  0.00     0.028 C 
ATOM     10  C   LIG d   1      -2.155  86.247 120.157  0.00  0.00     0.006 C 
ENDBRANCH   8   9
BRANCH   8  11
ATOM     11  C   LIG d   1      -2.887  88.646 120.554  0.00  0.00     0.028 C 
ATOM     12  C   LIG d   1      -2.953  89.898 121.444  0.00  0.00     0.006 C 
ENDBRANCH   8  11
ENDBRANCH   7   8
ENDBRANCH   1   7
BRANCH   6  13
ATOM     13  N   LIG d   1      -3.879  91.266 116.938  0.00  0.00    -0.311 N 
ATOM     14  C   LIG d   1      -5.177  91.525 117.087  0.00  0.00     0.210 C 
ATOM     15  C   LIG d   1      -6.042  91.220 115.860  0.00  0.00     0.109 C 
ATOM     16  O   LIG d   1      -5.689  92.010 118.107  0.00  0.00    -0.276 OA
ATOM     17  H   LIG d   1      -3.545  90.905 116.066  0.00  0.00     0.149 HD
ENDBRANCH   6  13
BRANCH   5  18
ATOM     18  N   LIG d   1      -3.345  93.931 118.333  0.00  0.00     0.381 N 
ATOM     19  H   LIG d   1      -3.393  94.599 117.590  0.00  0.00    -0.090 HD
ATOM     20  H   LIG d   1      -3.084  94.414 119.175  0.00  0.00    -0.090 HD
ATOM     21  H   LIG d   1      -4.231  93.493 118.454  0.00  0.00    -0.090 HD
ENDBRANCH   5  18
BRANCH   3  22
ATOM     22  C   LIG d   1       1.030  92.315 119.423  0.00  0.00     0.382 C 
ATOM     23  O   LIG d   1       1.975  92.335 118.597  0.00  0.00    -0.241 OA
ATOM     24  O   LIG d   1       1.265  92.517 120.629  0.00  0.00    -0.241 OA
ENDBRANCH   3  22
TORSDOF 7
ENDMDL
MODEL 9
REMARK VINA RESULT:      -3.9      3.031      4.422
REMARK  7 active torsions:
REMARK  status: ('A' for Active; 'I' for Inactive)
REMARK    1  A    between atoms: C_2  and  C_3 
REMARK    2  A    between atoms: C_3  and  O_6 
REMARK    3  A    between atoms: C_3  and  C_4 
REMARK    4  A    between atoms: C_7  and  O_6 
REMARK    5  A    between atoms: C_9  and  C_10 
REMARK    6  A    between atoms: N_15  and  C_14 
REMARK    7  A    between atoms: N_20  and  C_19 
REMARK       I    between atoms: C_22  and  N_20 
ROOT
ATOM      1  C   LIG d   1      -1.792  92.748 118.026  0.00  0.00     0.161 C 
ATOM      2  C   LIG d   1      -3.155  92.706 117.688  0.00  0.00     0.016 C 
ATOM      3  C   LIG d   1      -3.922  91.518 117.693  0.00  0.00     0.038 C 
ATOM      4  C   LIG d   1      -3.411  90.308 118.186  0.00  0.00     0.028 C 
ATOM      5  C   LIG d   1      -1.896  90.195 118.061  0.00  0.00    -0.047 C 
ATOM      6  C   LIG d   1      -1.246  91.457 118.672  0.00  0.00     0.091 C 
ENDROOT
BRANCH   1   7
ATOM      7  O   LIG d   1      -1.534  93.882 118.876  0.00  0.00    -0.368 OA
BRANCH   7   8
ATOM      8  C   LIG d   1      -0.929  95.033 118.237  0.00  0.00     0.119 C 
BRANCH   8   9
ATOM      9  C   LIG d   1       0.537  95.106 118.707  0.00  0.00     0.028 C 
ATOM     10  C   LIG d   1       0.908  96.492 119.261  0.00  0.00     0.006 C 
ENDBRANCH   8   9
BRANCH   8  11
ATOM     11  C   LIG d   1      -1.573  96.338 118.715  0.00  0.00     0.028 C 
ATOM     12  C   LIG d   1      -3.005  96.140 119.235  0.00  0.00     0.006 C 
ENDBRANCH   8  11
ENDBRANCH   7   8
ENDBRANCH   1   7
BRANCH   6  13
ATOM     13  N   LIG d   1       0.232  91.467 118.516  0.00  0.00    -0.311 N 
ATOM     14  C   LIG d   1       0.857  91.018 117.429  0.00  0.00     0.210 C 
ATOM     15  C   LIG d   1       2.386  91.100 117.482  0.00  0.00     0.109 C 
ATOM     16  O   LIG d   1       0.289  90.590 116.413  0.00  0.00    -0.276 OA
ATOM     17  H   LIG d   1       0.769  91.826 119.281  0.00  0.00     0.149 HD
ENDBRANCH   6  13
BRANCH   5  18
ATOM     18  N   LIG d   1      -1.485  88.949 118.736  0.00  0.00     0.381 N 
ATOM     19  H   LIG d   1      -1.703  89.004 119.711  0.00  0.00    -0.090 HD
ATOM     20  H   LIG d   1      -0.490  88.841 118.642  0.00  0.00    -0.090 HD
ATOM     21  H   LIG d   1      -1.951  88.170 118.327  0.00  0.00    -0.090 HD
ENDBRANCH   5  18
BRANCH   3  22
ATOM     22  C   LIG d   1      -5.204  91.525 117.164  0.00  0.00     0.382 C 
ATOM     23  O   LIG d   1      -6.072  92.300 117.634  0.00  0.00    -0.241 OA
ATOM     24  O   LIG d   1      -5.516  90.735 116.253  0.00  0.00    -0.241 OA
ENDBRANCH   3  22
TORSDOF 7
ENDMDL
