MODEL 1
REMARK VINA RESULT:      -5.5      0.000      0.000
REMARK  7 active torsions:
REMARK  status: ('A' for Active; 'I' for Inactive)
REMARK    1  A    between atoms: C_2  and  C_3 
REMARK    2  A    between atoms: C_3  and  O_6 
REMARK    3  A    between atoms: C_3  and  C_4 
REMARK    4  A    between atoms: C_7  and  O_6 
REMARK    5  A    between atoms: C_9  and  C_10 
REMARK    6  A    between atoms: N_15  and  C_14 
REMARK    7  A    between atoms: N_20  and  C_19 
REMARK       I    between atoms: C_22  and  N_20 
ROOT
ATOM      1  C   LIG d   1      -6.460  93.470 118.016  0.00  0.00     0.161 C 
ATOM      2  C   LIG d   1      -6.878  92.353 117.274  0.00  0.00     0.016 C 
ATOM      3  C   LIG d   1      -6.018  91.287 116.921  0.00  0.00     0.038 C 
ATOM      4  C   LIG d   1      -4.710  91.193 117.420  0.00  0.00     0.028 C 
ATOM      5  C   LIG d   1      -4.092  92.546 117.755  0.00  0.00    -0.047 C 
ATOM      6  C   LIG d   1      -5.066  93.332 118.663  0.00  0.00     0.091 C 
ENDROOT
BRANCH   1   7
ATOM      7  O   LIG d   1      -7.447  93.789 119.017  0.00  0.00    -0.368 OA
BRANCH   7   8
ATOM      8  C   LIG d   1      -8.451  94.760 118.634  0.00  0.00     0.119 C 
BRANCH   8   9
ATOM      9  C   LIG d   1      -7.713  96.020 118.142  0.00  0.00     0.028 C 
ATOM     10  C   LIG d   1      -8.287  97.312 118.749  0.00  0.00     0.006 C 
ENDBRANCH   8   9
BRANCH   8  11
ATOM     11  C   LIG d   1      -9.273  95.218 119.843  0.00  0.00     0.028 C 
ATOM     12  C   LIG d   1     -10.362  94.209 120.240  0.00  0.00     0.006 C 
ENDBRANCH   8  11
ENDBRANCH   7   8
ENDBRANCH   1   7
BRANCH   6  13
ATOM     13  N   LIG d   1      -4.575  94.701 118.970  0.00  0.00    -0.311 N 
ATOM     14  C   LIG d   1      -3.848  94.995 120.046  0.00  0.00     0.210 C 
ATOM     15  C   LIG d   1      -3.463  96.471 120.183  0.00  0.00     0.109 C 
ATOM     16  O   LIG d   1      -3.459  94.168 120.884  0.00  0.00    -0.276 OA
ATOM     17  H   LIG d   1      -4.819  95.428 118.326  0.00  0.00     0.149 HD
ENDBRANCH   6  13
BRANCH   5  18
ATOM     18  N   LIG d   1      -2.785  92.294 118.392  0.00  0.00     0.381 N 
ATOM     19  H   LIG d   1      -2.339  91.513 117.952  0.00  0.00    -0.090 HD
ATOM     20  H   LIG d   1      -2.933  92.068 119.359  0.00  0.00    -0.090 HD
ATOM     21  H   LIG d   1      -2.207  93.102 118.316  0.00  0.00    -0.090 HD
ENDBRANCH   5  18
BRANCH   3  22
ATOM     22  C   LIG d   1      -6.453  90.320 116.028  0.00  0.00     0.382 C 
ATOM     23  O   LIG d   1      -7.682  90.150 115.838  0.00  0.00    -0.241 OA
ATOM     24  O   LIG d   1      -5.635  89.585 115.444  0.00  0.00    -0.241 OA
ENDBRANCH   3  22
TORSDOF 7
ENDMDL
MODEL 2
REMARK VINA RESULT:      -5.3      2.265      4.995
REMARK  7 active torsions:
REMARK  status: ('A' for Active; 'I' for Inactive)
REMARK    1  A    between atoms: C_2  and  C_3 
REMARK    2  A    between atoms: C_3  and  O_6 
REMARK    3  A    between atoms: C_3  and  C_4 
REMARK    4  A    between atoms: C_7  and  O_6 
REMARK    5  A    between atoms: C_9  and  C_10 
REMARK    6  A    between atoms: N_15  and  C_14 
REMARK    7  A    between atoms: N_20  and  C_19 
REMARK       I    between atoms: C_22  and  N_20 
ROOT
ATOM      1  C   LIG d   1      -4.523  92.631 118.334  0.00  0.00     0.161 C 
ATOM      2  C   LIG d   1      -4.782  91.605 117.409  0.00  0.00     0.016 C 
ATOM      3  C   LIG d   1      -6.031  91.431 116.770  0.00  0.00     0.038 C 
ATOM      4  C   LIG d   1      -7.068  92.368 116.900  0.00  0.00     0.028 C 
ATOM      5  C   LIG d   1      -7.024  93.141 118.213  0.00  0.00    -0.047 C 
ATOM      6  C   LIG d   1      -5.606  93.727 118.404  0.00  0.00     0.091 C 
ENDROOT
BRANCH   1   7
ATOM      7  O   LIG d   1      -3.234  93.216 118.065  0.00  0.00    -0.368 OA
BRANCH   7   8
ATOM      8  C   LIG d   1      -2.082  92.405 118.406  0.00  0.00     0.119 C 
BRANCH   8   9
ATOM      9  C   LIG d   1      -2.084  92.218 119.935  0.00  0.00     0.028 C 
ATOM     10  C   LIG d   1      -1.954  90.741 120.346  0.00  0.00     0.006 C 
ENDBRANCH   8   9
BRANCH   8  11
ATOM     11  C   LIG d   1      -0.773  93.135 118.089  0.00  0.00     0.028 C 
ATOM     12  C   LIG d   1       0.277  92.220 117.440  0.00  0.00     0.006 C 
ENDBRANCH   8  11
ENDBRANCH   7   8
ENDBRANCH   1   7
BRANCH   6  13
ATOM     13  N   LIG d   1      -5.452  94.429 119.705  0.00  0.00    -0.311 N 
ATOM     14  C   LIG d   1      -5.686  95.730 119.868  0.00  0.00     0.210 C 
ATOM     15  C   LIG d   1      -5.448  96.256 121.287  0.00  0.00     0.109 C 
ATOM     16  O   LIG d   1      -6.100  96.491 118.981  0.00  0.00    -0.276 OA
ATOM     17  H   LIG d   1      -5.151  93.880 120.486  0.00  0.00     0.149 HD
ENDBRANCH   6  13
BRANCH   5  18
ATOM     18  N   LIG d   1      -8.074  94.176 118.157  0.00  0.00     0.381 N 
ATOM     19  H   LIG d   1      -7.759  94.948 117.604  0.00  0.00    -0.090 HD
ATOM     20  H   LIG d   1      -8.255  94.507 119.088  0.00  0.00    -0.090 HD
ATOM     21  H   LIG d   1      -8.907  93.795 117.765  0.00  0.00    -0.090 HD
ENDBRANCH   5  18
BRANCH   3  22
ATOM     22  C   LIG d   1      -6.267  90.288 116.022  0.00  0.00     0.382 C 
ATOM     23  O   LIG d   1      -5.318  89.718 115.432  0.00  0.00    -0.241 OA
ATOM     24  O   LIG d   1      -7.424  89.844 115.894  0.00  0.00    -0.241 OA
ENDBRANCH   3  22
TORSDOF 7
ENDMDL
MODEL 3
REMARK VINA RESULT:      -5.2      2.063      4.511
REMARK  7 active torsions:
REMARK  status: ('A' for Active; 'I' for Inactive)
REMARK    1  A    between atoms: C_2  and  C_3 
REMARK    2  A    between atoms: C_3  and  O_6 
REMARK    3  A    between atoms: C_3  and  C_4 
REMARK    4  A    between atoms: C_7  and  O_6 
REMARK    5  A    between atoms: C_9  and  C_10 
REMARK    6  A    between atoms: N_15  and  C_14 
REMARK    7  A    between atoms: N_20  and  C_19 
REMARK       I    between atoms: C_22  and  N_20 
ROOT
ATOM      1  C   LIG d   1      -4.577  93.158 118.760  0.00  0.00     0.161 C 
ATOM      2  C   LIG d   1      -4.375  92.071 117.893  0.00  0.00     0.016 C 
ATOM      3  C   LIG d   1      -5.370  91.577 117.019  0.00  0.00     0.038 C 
ATOM      4  C   LIG d   1      -6.595  92.237 116.842  0.00  0.00     0.028 C 
ATOM      5  C   LIG d   1      -7.033  93.041 118.062  0.00  0.00    -0.047 C 
ATOM      6  C   LIG d   1      -5.870  93.960 118.501  0.00  0.00     0.091 C 
ENDROOT
BRANCH   1   7
ATOM      7  O   LIG d   1      -3.431  94.031 118.724  0.00  0.00    -0.368 OA
BRANCH   7   8
ATOM      8  C   LIG d   1      -2.474  93.871 119.801  0.00  0.00     0.119 C 
BRANCH   8   9
ATOM      9  C   LIG d   1      -2.338  95.234 120.506  0.00  0.00     0.028 C 
ATOM     10  C   LIG d   1      -2.907  96.389 119.665  0.00  0.00     0.006 C 
ENDBRANCH   8   9
BRANCH   8  11
ATOM     11  C   LIG d   1      -1.077  93.552 119.261  0.00  0.00     0.028 C 
ATOM     12  C   LIG d   1      -0.972  93.725 117.738  0.00  0.00     0.006 C 
ENDBRANCH   8  11
ENDBRANCH   7   8
ENDBRANCH   1   7
BRANCH   6  13
ATOM     13  N   LIG d   1      -6.184  94.720 119.739  0.00  0.00    -0.311 N 
ATOM     14  C   LIG d   1      -6.652  95.966 119.735  0.00  0.00     0.210 C 
ATOM     15  C   LIG d   1      -6.890  96.572 121.122  0.00  0.00     0.109 C 
ATOM     16  O   LIG d   1      -6.924  96.617 118.715  0.00  0.00    -0.276 OA
ATOM     17  H   LIG d   1      -6.022  94.256 120.612  0.00  0.00     0.149 HD
ENDBRANCH   6  13
BRANCH   5  18
ATOM     18  N   LIG d   1      -8.251  93.785 117.693  0.00  0.00     0.381 N 
ATOM     19  H   LIG d   1      -8.103  94.765 117.829  0.00  0.00    -0.090 HD
ATOM     20  H   LIG d   1      -9.004  93.494 118.291  0.00  0.00    -0.090 HD
ATOM     21  H   LIG d   1      -8.484  93.606 116.741  0.00  0.00    -0.090 HD
ENDBRANCH   5  18
BRANCH   3  22
ATOM     22  C   LIG d   1      -5.159  90.387 116.339  0.00  0.00     0.382 C 
ATOM     23  O   LIG d   1      -4.069  89.779 116.465  0.00  0.00    -0.241 OA
ATOM     24  O   LIG d   1      -6.027  89.937 115.568  0.00  0.00    -0.241 OA
ENDBRANCH   3  22
TORSDOF 7
ENDMDL
MODEL 4
REMARK VINA RESULT:      -5.2      2.625      5.543
REMARK  7 active torsions:
REMARK  status: ('A' for Active; 'I' for Inactive)
REMARK    1  A    between atoms: C_2  and  C_3 
REMARK    2  A    between atoms: C_3  and  O_6 
REMARK    3  A    between atoms: C_3  and  C_4 
REMARK    4  A    between atoms: C_7  and  O_6 
REMARK    5  A    between atoms: C_9  and  C_10 
REMARK    6  A    between atoms: N_15  and  C_14 
REMARK    7  A    between atoms: N_20  and  C_19 
REMARK       I    between atoms: C_22  and  N_20 
ROOT
ATOM      1  C   LIG d   1      -4.306  92.568 118.791  0.00  0.00     0.161 C 
ATOM      2  C   LIG d   1      -5.465  93.348 118.932  0.00  0.00     0.016 C 
ATOM      3  C   LIG d   1      -6.599  93.216 118.098  0.00  0.00     0.038 C 
ATOM      4  C   LIG d   1      -6.709  92.183 117.155  0.00  0.00     0.028 C 
ATOM      5  C   LIG d   1      -5.362  91.690 116.636  0.00  0.00    -0.047 C 
ATOM      6  C   LIG d   1      -4.450  91.361 117.840  0.00  0.00     0.091 C 
ENDROOT
BRANCH   1   7
ATOM      7  O   LIG d   1      -3.849  92.132 120.086  0.00  0.00    -0.368 OA
BRANCH   7   8
ATOM      8  C   LIG d   1      -2.608  92.715 120.554  0.00  0.00     0.119 C 
BRANCH   8   9
ATOM      9  C   LIG d   1      -2.067  93.617 119.427  0.00  0.00     0.028 C 
ATOM     10  C   LIG d   1      -0.640  93.231 119.002  0.00  0.00     0.006 C 
ENDBRANCH   8   9
BRANCH   8  11
ATOM     11  C   LIG d   1      -1.534  91.644 120.767  0.00  0.00     0.028 C 
ATOM     12  C   LIG d   1      -2.091  90.361 121.403  0.00  0.00     0.006 C 
ENDBRANCH   8  11
ENDBRANCH   7   8
ENDBRANCH   1   7
BRANCH   6  13
ATOM     13  N   LIG d   1      -3.084  90.952 117.421  0.00  0.00    -0.311 N 
ATOM     14  C   LIG d   1      -2.546  89.773 117.727  0.00  0.00     0.210 C 
ATOM     15  C   LIG d   1      -1.118  89.562 117.214  0.00  0.00     0.109 C 
ATOM     16  O   LIG d   1      -3.127  88.870 118.347  0.00  0.00    -0.276 OA
ATOM     17  H   LIG d   1      -2.554  91.613 116.887  0.00  0.00     0.149 HD
ENDBRANCH   6  13
BRANCH   5  18
ATOM     18  N   LIG d   1      -5.618  90.525 115.768  0.00  0.00     0.381 N 
ATOM     19  H   LIG d   1      -5.945  89.757 116.320  0.00  0.00    -0.090 HD
ATOM     20  H   LIG d   1      -4.757  90.253 115.327  0.00  0.00    -0.090 HD
ATOM     21  H   LIG d   1      -6.296  90.758 115.076  0.00  0.00    -0.090 HD
ENDBRANCH   5  18
BRANCH   3  22
ATOM     22  C   LIG d   1      -7.622  94.148 118.175  0.00  0.00     0.382 C 
ATOM     23  O   LIG d   1      -8.818  93.770 118.147  0.00  0.00    -0.241 OA
ATOM     24  O   LIG d   1      -7.365  95.366 118.229  0.00  0.00    -0.241 OA
ENDBRANCH   3  22
TORSDOF 7
ENDMDL
MODEL 5
REMARK VINA RESULT:      -4.9      3.430      6.500
REMARK  7 active torsions:
REMARK  status: ('A' for Active; 'I' for Inactive)
REMARK    1  A    between atoms: C_2  and  C_3 
REMARK    2  A    between atoms: C_3  and  O_6 
REMARK    3  A    between atoms: C_3  and  C_4 
REMARK    4  A    between atoms: C_7  and  O_6 
REMARK    5  A    between atoms: C_9  and  C_10 
REMARK    6  A    between atoms: N_15  and  C_14 
REMARK    7  A    between atoms: N_20  and  C_19 
REMARK       I    between atoms: C_22  and  N_20 
ROOT
ATOM      1  C   LIG d   1      -2.821  90.390 117.878  0.00  0.00     0.161 C 
ATOM      2  C   LIG d   1      -4.009  90.147 117.167  0.00  0.00     0.016 C 
ATOM      3  C   LIG d   1      -5.009  91.126 116.965  0.00  0.00     0.038 C 
ATOM      4  C   LIG d   1      -4.819  92.466 117.333  0.00  0.00     0.028 C 
ATOM      5  C   LIG d   1      -3.852  92.643 118.499  0.00  0.00    -0.047 C 
ATOM      6  C   LIG d   1      -2.547  91.876 118.190  0.00  0.00     0.091 C 
ENDROOT
BRANCH   1   7
ATOM      7  O   LIG d   1      -1.704  89.811 117.174  0.00  0.00    -0.368 OA
BRANCH   7   8
ATOM      8  C   LIG d   1      -1.419  88.421 117.465  0.00  0.00     0.119 C 
BRANCH   8   9
ATOM      9  C   LIG d   1      -1.591  88.220 118.983  0.00  0.00     0.028 C 
ATOM     10  C   LIG d   1      -0.951  86.913 119.479  0.00  0.00     0.006 C 
ENDBRANCH   8   9
BRANCH   8  11
ATOM     11  C   LIG d   1       0.046  88.080 117.174  0.00  0.00     0.028 C 
ATOM     12  C   LIG d   1       0.958  89.317 117.180  0.00  0.00     0.006 C 
ENDBRANCH   8  11
ENDBRANCH   7   8
ENDBRANCH   1   7
BRANCH   6  13
ATOM     13  N   LIG d   1      -1.579  91.927 119.317  0.00  0.00    -0.311 N 
ATOM     14  C   LIG d   1      -0.546  92.767 119.358  0.00  0.00     0.210 C 
ATOM     15  C   LIG d   1       0.341  92.641 120.601  0.00  0.00     0.109 C 
ATOM     16  O   LIG d   1      -0.298  93.626 118.498  0.00  0.00    -0.276 OA
ATOM     17  H   LIG d   1      -1.723  91.285 120.072  0.00  0.00     0.149 HD
ENDBRANCH   6  13
BRANCH   5  18
ATOM     18  N   LIG d   1      -3.641  94.091 118.687  0.00  0.00     0.381 N 
ATOM     19  H   LIG d   1      -3.217  94.480 117.869  0.00  0.00    -0.090 HD
ATOM     20  H   LIG d   1      -3.017  94.231 119.463  0.00  0.00    -0.090 HD
ATOM     21  H   LIG d   1      -4.511  94.542 118.866  0.00  0.00    -0.090 HD
ENDBRANCH   5  18
BRANCH   3  22
ATOM     22  C   LIG d   1      -6.231  90.758 116.425  0.00  0.00     0.382 C 
ATOM     23  O   LIG d   1      -7.276  91.363 116.767  0.00  0.00    -0.241 OA
ATOM     24  O   LIG d   1      -6.309  89.800 115.633  0.00  0.00    -0.241 OA
ENDBRANCH   3  22
TORSDOF 7
ENDMDL
MODEL 6
REMARK VINA RESULT:      -4.8      5.151      8.226
REMARK  7 active torsions:
REMARK  status: ('A' for Active; 'I' for Inactive)
REMARK    1  A    between atoms: C_2  and  C_3 
REMARK    2  A    between atoms: C_3  and  O_6 
REMARK    3  A    between atoms: C_3  and  C_4 
REMARK    4  A    between atoms: C_7  and  O_6 
REMARK    5  A    between atoms: C_9  and  C_10 
REMARK    6  A    between atoms: N_15  and  C_14 
REMARK    7  A    between atoms: N_20  and  C_19 
REMARK       I    between atoms: C_22  and  N_20 
ROOT
ATOM      1  C   LIG d   1      -0.110  90.967 116.998  0.00  0.00     0.161 C 
ATOM      2  C   LIG d   1       1.290  90.921 117.110  0.00  0.00     0.016 C 
ATOM      3  C   LIG d   1       2.023  91.702 118.034  0.00  0.00     0.038 C 
ATOM      4  C   LIG d   1       1.389  92.475 119.018  0.00  0.00     0.028 C 
ATOM      5  C   LIG d   1      -0.006  92.942 118.616  0.00  0.00    -0.047 C 
ATOM      6  C   LIG d   1      -0.825  91.722 118.138  0.00  0.00     0.091 C 
ENDROOT
BRANCH   1   7
ATOM      7  O   LIG d   1      -0.634  89.631 116.875  0.00  0.00    -0.368 OA
BRANCH   7   8
ATOM      8  C   LIG d   1      -0.851  88.914 118.116  0.00  0.00     0.119 C 
BRANCH   8   9
ATOM      9  C   LIG d   1       0.008  87.636 118.069  0.00  0.00     0.028 C 
ATOM     10  C   LIG d   1       0.495  87.309 116.647  0.00  0.00     0.006 C 
ENDBRANCH   8   9
BRANCH   8  11
ATOM     11  C   LIG d   1      -2.298  88.427 118.232  0.00  0.00     0.028 C 
ATOM     12  C   LIG d   1      -2.596  87.763 119.586  0.00  0.00     0.006 C 
ENDBRANCH   8  11
ENDBRANCH   7   8
ENDBRANCH   1   7
BRANCH   6  13
ATOM     13  N   LIG d   1      -2.175  92.103 117.647  0.00  0.00    -0.311 N 
ATOM     14  C   LIG d   1      -3.276  92.023 118.393  0.00  0.00     0.210 C 
ATOM     15  C   LIG d   1      -4.568  92.446 117.686  0.00  0.00     0.109 C 
ATOM     16  O   LIG d   1      -3.301  91.672 119.582  0.00  0.00    -0.276 OA
ATOM     17  H   LIG d   1      -2.242  92.428 116.703  0.00  0.00     0.149 HD
ENDBRANCH   6  13
BRANCH   5  18
ATOM     18  N   LIG d   1      -0.603  93.618 119.784  0.00  0.00     0.381 N 
ATOM     19  H   LIG d   1      -1.507  93.234 119.972  0.00  0.00    -0.090 HD
ATOM     20  H   LIG d   1      -0.713  94.594 119.573  0.00  0.00    -0.090 HD
ATOM     21  H   LIG d   1      -0.015  93.506 120.580  0.00  0.00    -0.090 HD
ENDBRANCH   5  18
BRANCH   3  22
ATOM     22  C   LIG d   1       3.406  91.744 117.952  0.00  0.00     0.382 C 
ATOM     23  O   LIG d   1       3.961  92.428 117.058  0.00  0.00    -0.241 OA
ATOM     24  O   LIG d   1       4.106  91.072 118.734  0.00  0.00    -0.241 OA
ENDBRANCH   3  22
TORSDOF 7
ENDMDL
MODEL 7
REMARK VINA RESULT:      -4.7      2.704      5.478
REMARK  7 active torsions:
REMARK  status: ('A' for Active; 'I' for Inactive)
REMARK    1  A    between atoms: C_2  and  C_3 
REMARK    2  A    between atoms: C_3  and  O_6 
REMARK    3  A    between atoms: C_3  and  C_4 
REMARK    4  A    between atoms: C_7  and  O_6 
REMARK    5  A    between atoms: C_9  and  C_10 
REMARK    6  A    between atoms: N_15  and  C_14 
REMARK    7  A    between atoms: N_20  and  C_19 
REMARK       I    between atoms: C_22  and  N_20 
ROOT
ATOM      1  C   LIG d   1      -3.527  91.436 118.437  0.00  0.00     0.161 C 
ATOM      2  C   LIG d   1      -4.234  90.817 117.393  0.00  0.00     0.016 C 
ATOM      3  C   LIG d   1      -5.408  91.358 116.821  0.00  0.00     0.038 C 
ATOM      4  C   LIG d   1      -5.874  92.638 117.154  0.00  0.00     0.028 C 
ATOM      5  C   LIG d   1      -5.481  93.078 118.561  0.00  0.00    -0.047 C 
ATOM      6  C   LIG d   1      -3.957  92.887 118.739  0.00  0.00     0.091 C 
ENDROOT
BRANCH   1   7
ATOM      7  O   LIG d   1      -2.112  91.378 118.171  0.00  0.00    -0.368 OA
BRANCH   7   8
ATOM      8  C   LIG d   1      -1.364  90.384 118.913  0.00  0.00     0.119 C 
BRANCH   8   9
ATOM      9  C   LIG d   1      -0.518  91.130 119.964  0.00  0.00     0.028 C 
ATOM     10  C   LIG d   1      -0.853  90.697 121.401  0.00  0.00     0.006 C 
ENDBRANCH   8   9
BRANCH   8  11
ATOM     11  C   LIG d   1      -0.353  89.663 118.017  0.00  0.00     0.028 C 
ATOM     12  C   LIG d   1      -0.958  88.451 117.291  0.00  0.00     0.006 C 
ENDBRANCH   8  11
ENDBRANCH   7   8
ENDBRANCH   1   7
BRANCH   6  13
ATOM     13  N   LIG d   1      -3.502  93.214 120.115  0.00  0.00    -0.311 N 
ATOM     14  C   LIG d   1      -2.573  94.131 120.381  0.00  0.00     0.210 C 
ATOM     15  C   LIG d   1      -2.236  94.298 121.866  0.00  0.00     0.109 C 
ATOM     16  O   LIG d   1      -2.019  94.844 119.531  0.00  0.00    -0.276 OA
ATOM     17  H   LIG d   1      -3.922  92.705 120.868  0.00  0.00     0.149 HD
ENDBRANCH   6  13
BRANCH   5  18
ATOM     18  N   LIG d   1      -5.911  94.479 118.726  0.00  0.00     0.381 N 
ATOM     19  H   LIG d   1      -5.110  95.078 118.754  0.00  0.00    -0.090 HD
ATOM     20  H   LIG d   1      -6.402  94.568 119.598  0.00  0.00    -0.090 HD
ATOM     21  H   LIG d   1      -6.506  94.744 117.972  0.00  0.00    -0.090 HD
ENDBRANCH   5  18
BRANCH   3  22
ATOM     22  C   LIG d   1      -6.152  90.597 115.931  0.00  0.00     0.382 C 
ATOM     23  O   LIG d   1      -7.333  90.925 115.661  0.00  0.00    -0.241 OA
ATOM     24  O   LIG d   1      -5.673  89.562 115.430  0.00  0.00    -0.241 OA
ENDBRANCH   3  22
TORSDOF 7
ENDMDL
MODEL 8
REMARK VINA RESULT:      -4.4      3.892      6.316
REMARK  7 active torsions:
REMARK  status: ('A' for Active; 'I' for Inactive)
REMARK    1  A    between atoms: C_2  and  C_3 
REMARK    2  A    between atoms: C_3  and  O_6 
REMARK    3  A    between atoms: C_3  and  C_4 
REMARK    4  A    between atoms: C_7  and  O_6 
REMARK    5  A    between atoms: C_9  and  C_10 
REMARK    6  A    between atoms: N_15  and  C_14 
REMARK    7  A    between atoms: N_20  and  C_19 
REMARK       I    between atoms: C_22  and  N_20 
ROOT
ATOM      1  C   LIG d   1      -2.531  91.472 118.357  0.00  0.00     0.161 C 
ATOM      2  C   LIG d   1      -1.246  91.041 117.985  0.00  0.00     0.016 C 
ATOM      3  C   LIG d   1      -0.202  91.924 117.626  0.00  0.00     0.038 C 
ATOM      4  C   LIG d   1      -0.328  93.315 117.762  0.00  0.00     0.028 C 
ATOM      5  C   LIG d   1      -1.767  93.807 117.651  0.00  0.00    -0.047 C 
ATOM      6  C   LIG d   1      -2.653  92.988 118.618  0.00  0.00     0.091 C 
ENDROOT
BRANCH   1   7
ATOM      7  O   LIG d   1      -2.982  90.728 119.506  0.00  0.00    -0.368 OA
BRANCH   7   8
ATOM      8  C   LIG d   1      -1.948  90.224 120.386  0.00  0.00     0.119 C 
BRANCH   8   9
ATOM      9  C   LIG d   1      -2.303  88.764 120.730  0.00  0.00     0.028 C 
ATOM     10  C   LIG d   1      -2.505  87.898 119.475  0.00  0.00     0.006 C 
ENDBRANCH   8   9
BRANCH   8  11
ATOM     11  C   LIG d   1      -1.944  90.967 121.725  0.00  0.00     0.028 C 
ATOM     12  C   LIG d   1      -3.287  91.649 122.031  0.00  0.00     0.006 C 
ENDBRANCH   8  11
ENDBRANCH   7   8
ENDBRANCH   1   7
BRANCH   6  13
ATOM     13  N   LIG d   1      -4.091  93.348 118.512  0.00  0.00    -0.311 N 
ATOM     14  C   LIG d   1      -4.697  94.200 119.337  0.00  0.00     0.210 C 
ATOM     15  C   LIG d   1      -6.189  94.415 119.064  0.00  0.00     0.109 C 
ATOM     16  O   LIG d   1      -4.133  94.823 120.250  0.00  0.00    -0.276 OA
ATOM     17  H   LIG d   1      -4.617  92.913 117.780  0.00  0.00     0.149 HD
ENDBRANCH   6  13
BRANCH   5  18
ATOM     18  N   LIG d   1      -1.769  95.252 117.949  0.00  0.00     0.381 N 
ATOM     19  H   LIG d   1      -2.550  95.477 118.531  0.00  0.00    -0.090 HD
ATOM     20  H   LIG d   1      -1.861  95.761 117.087  0.00  0.00    -0.090 HD
ATOM     21  H   LIG d   1      -0.921  95.507 118.405  0.00  0.00    -0.090 HD
ENDBRANCH   5  18
BRANCH   3  22
ATOM     22  C   LIG d   1       0.971  91.419 117.088  0.00  0.00     0.382 C 
ATOM     23  O   LIG d   1       2.048  92.046 117.231  0.00  0.00    -0.241 OA
ATOM     24  O   LIG d   1       0.958  90.366 116.422  0.00  0.00    -0.241 OA
ENDBRANCH   3  22
TORSDOF 7
ENDMDL
MODEL 9
REMARK VINA RESULT:      -4.4      2.129      4.907
REMARK  7 active torsions:
REMARK  status: ('A' for Active; 'I' for Inactive)
REMARK    1  A    between atoms: C_2  and  C_3 
REMARK    2  A    between atoms: C_3  and  O_6 
REMARK    3  A    between atoms: C_3  and  C_4 
REMARK    4  A    between atoms: C_7  and  O_6 
REMARK    5  A    between atoms: C_9  and  C_10 
REMARK    6  A    between atoms: N_15  and  C_14 
REMARK    7  A    between atoms: N_20  and  C_19 
REMARK       I    between atoms: C_22  and  N_20 
ROOT
ATOM      1  C   LIG d   1      -4.732  92.499 118.822  0.00  0.00     0.161 C 
ATOM      2  C   LIG d   1      -3.734  92.988 119.681  0.00  0.00     0.016 C 
ATOM      3  C   LIG d   1      -2.394  92.538 119.652  0.00  0.00     0.038 C 
ATOM      4  C   LIG d   1      -1.924  91.670 118.654  0.00  0.00     0.028 C 
ATOM      5  C   LIG d   1      -3.008  90.765 118.079  0.00  0.00    -0.047 C 
ATOM      6  C   LIG d   1      -4.214  91.634 117.654  0.00  0.00     0.091 C 
ENDROOT
BRANCH   1   7
ATOM      7  O   LIG d   1      -5.526  93.593 118.322  0.00  0.00    -0.368 OA
BRANCH   7   8
ATOM      8  C   LIG d   1      -6.616  94.030 119.170  0.00  0.00     0.119 C 
BRANCH   8   9
ATOM      9  C   LIG d   1      -7.916  93.911 118.351  0.00  0.00     0.028 C 
ATOM     10  C   LIG d   1      -9.153  94.364 119.145  0.00  0.00     0.006 C 
ENDBRANCH   8   9
BRANCH   8  11
ATOM     11  C   LIG d   1      -6.490  95.517 119.517  0.00  0.00     0.028 C 
ATOM     12  C   LIG d   1      -6.194  95.758 121.006  0.00  0.00     0.006 C 
ENDBRANCH   8  11
ENDBRANCH   7   8
ENDBRANCH   1   7
BRANCH   6  13
ATOM     13  N   LIG d   1      -5.354  90.818 117.158  0.00  0.00    -0.311 N 
ATOM     14  C   LIG d   1      -6.115  91.174 116.125  0.00  0.00     0.210 C 
ATOM     15  C   LIG d   1      -7.249  90.199 115.792  0.00  0.00     0.109 C 
ATOM     16  O   LIG d   1      -5.939  92.188 115.433  0.00  0.00    -0.276 OA
ATOM     17  H   LIG d   1      -5.548  89.964 117.643  0.00  0.00     0.149 HD
ENDBRANCH   6  13
BRANCH   5  18
ATOM     18  N   LIG d   1      -2.413  90.014 116.958  0.00  0.00     0.381 N 
ATOM     19  H   LIG d   1      -2.580  90.498 116.099  0.00  0.00    -0.090 HD
ATOM     20  H   LIG d   1      -2.853  89.112 116.902  0.00  0.00    -0.090 HD
ATOM     21  H   LIG d   1      -1.433  89.905 117.102  0.00  0.00    -0.090 HD
ENDBRANCH   5  18
BRANCH   3  22
ATOM     22  C   LIG d   1      -1.517  92.925 120.654  0.00  0.00     0.382 C 
ATOM     23  O   LIG d   1      -1.896  93.725 121.543  0.00  0.00    -0.241 OA
ATOM     24  O   LIG d   1      -0.339  92.521 120.653  0.00  0.00    -0.241 OA
ENDBRANCH   3  22
TORSDOF 7
ENDMDL
