MODEL 1
REMARK VINA RESULT:      -5.0      0.000      0.000
REMARK  7 active torsions:
REMARK  status: ('A' for Active; 'I' for Inactive)
REMARK    1  A    between atoms: C_2  and  C_3 
REMARK    2  A    between atoms: C_3  and  O_6 
REMARK    3  A    between atoms: C_3  and  C_4 
REMARK    4  A    between atoms: C_7  and  O_6 
REMARK    5  A    between atoms: C_9  and  C_10 
REMARK    6  A    between atoms: N_15  and  C_14 
REMARK    7  A    between atoms: N_20  and  C_19 
REMARK       I    between atoms: C_22  and  N_20 
ROOT
ATOM      1  C   LIG d   1      -4.550  92.706 118.885  0.00  0.00     0.161 C 
ATOM      2  C   LIG d   1      -5.771  93.400 118.888  0.00  0.00     0.016 C 
ATOM      3  C   LIG d   1      -6.762  93.236 117.893  0.00  0.00     0.038 C 
ATOM      4  C   LIG d   1      -6.662  92.247 116.903  0.00  0.00     0.028 C 
ATOM      5  C   LIG d   1      -5.223  91.872 116.566  0.00  0.00    -0.047 C 
ATOM      6  C   LIG d   1      -4.470  91.543 117.875  0.00  0.00     0.091 C 
ENDROOT
BRANCH   1   7
ATOM      7  O   LIG d   1      -4.251  92.236 120.215  0.00  0.00    -0.368 OA
BRANCH   7   8
ATOM      8  C   LIG d   1      -3.126  92.865 120.875  0.00  0.00     0.119 C 
BRANCH   8   9
ATOM      9  C   LIG d   1      -2.471  93.824 119.862  0.00  0.00     0.028 C 
ATOM     10  C   LIG d   1      -0.988  93.498 119.620  0.00  0.00     0.006 C 
ENDBRANCH   8   9
BRANCH   8  11
ATOM     11  C   LIG d   1      -2.041  91.842 121.224  0.00  0.00     0.028 C 
ATOM     12  C   LIG d   1      -2.619  90.476 121.628  0.00  0.00     0.006 C 
ENDBRANCH   8  11
ENDBRANCH   7   8
ENDBRANCH   1   7
BRANCH   6  13
ATOM     13  N   LIG d   1      -3.032  91.246 117.643  0.00  0.00    -0.311 N 
ATOM     14  C   LIG d   1      -2.470  90.073 117.927  0.00  0.00     0.210 C 
ATOM     15  C   LIG d   1      -0.970  89.985 117.629  0.00  0.00     0.109 C 
ATOM     16  O   LIG d   1      -3.078  89.086 118.369  0.00  0.00    -0.276 OA
ATOM     17  H   LIG d   1      -2.472  91.981 117.257  0.00  0.00     0.149 HD
ENDBRANCH   6  13
BRANCH   5  18
ATOM     18  N   LIG d   1      -5.268  90.738 115.623  0.00  0.00     0.381 N 
ATOM     19  H   LIG d   1      -4.850  91.003 114.754  0.00  0.00    -0.090 HD
ATOM     20  H   LIG d   1      -6.228  90.496 115.451  0.00  0.00    -0.090 HD
ATOM     21  H   LIG d   1      -4.784  89.956 116.007  0.00  0.00    -0.090 HD
ENDBRANCH   5  18
BRANCH   3  22
ATOM     22  C   LIG d   1      -7.851  94.094 117.860  0.00  0.00     0.382 C 
ATOM     23  O   LIG d   1      -7.732  95.274 118.268  0.00  0.00    -0.241 OA
ATOM     24  O   LIG d   1      -8.962  93.689 117.468  0.00  0.00    -0.241 OA
ENDBRANCH   3  22
TORSDOF 7
ENDMDL
MODEL 2
REMARK VINA RESULT:      -4.9      2.192      3.821
REMARK  7 active torsions:
REMARK  status: ('A' for Active; 'I' for Inactive)
REMARK    1  A    between atoms: C_2  and  C_3 
REMARK    2  A    between atoms: C_3  and  O_6 
REMARK    3  A    between atoms: C_3  and  C_4 
REMARK    4  A    between atoms: C_7  and  O_6 
REMARK    5  A    between atoms: C_9  and  C_10 
REMARK    6  A    between atoms: N_15  and  C_14 
REMARK    7  A    between atoms: N_20  and  C_19 
REMARK       I    between atoms: C_22  and  N_20 
ROOT
ATOM      1  C   LIG d   1      -5.020  93.175 118.778  0.00  0.00     0.161 C 
ATOM      2  C   LIG d   1      -6.088  92.717 117.989  0.00  0.00     0.016 C 
ATOM      3  C   LIG d   1      -5.924  91.854 116.882  0.00  0.00     0.038 C 
ATOM      4  C   LIG d   1      -4.687  91.265 116.578  0.00  0.00     0.028 C 
ATOM      5  C   LIG d   1      -3.492  92.093 117.039  0.00  0.00    -0.047 C 
ATOM      6  C   LIG d   1      -3.678  92.455 118.530  0.00  0.00     0.091 C 
ENDROOT
BRANCH   1   7
ATOM      7  O   LIG d   1      -5.377  93.103 120.173  0.00  0.00    -0.368 OA
BRANCH   7   8
ATOM      8  C   LIG d   1      -5.642  94.367 120.829  0.00  0.00     0.119 C 
BRANCH   8   9
ATOM      9  C   LIG d   1      -7.122  94.365 121.257  0.00  0.00     0.028 C 
ATOM     10  C   LIG d   1      -7.458  93.200 122.204  0.00  0.00     0.006 C 
ENDBRANCH   8   9
BRANCH   8  11
ATOM     11  C   LIG d   1      -5.504  95.541 119.854  0.00  0.00     0.028 C 
ATOM     12  C   LIG d   1      -6.833  96.274 119.612  0.00  0.00     0.006 C 
ENDBRANCH   8  11
ENDBRANCH   7   8
ENDBRANCH   1   7
BRANCH   6  13
ATOM     13  N   LIG d   1      -2.595  93.336 119.039  0.00  0.00    -0.311 N 
ATOM     14  C   LIG d   1      -1.494  92.877 119.631  0.00  0.00     0.210 C 
ATOM     15  C   LIG d   1      -0.513  93.957 120.099  0.00  0.00     0.109 C 
ATOM     16  O   LIG d   1      -1.221  91.677 119.785  0.00  0.00    -0.276 OA
ATOM     17  H   LIG d   1      -2.719  94.324 118.927  0.00  0.00     0.149 HD
ENDBRANCH   6  13
BRANCH   5  18
ATOM     18  N   LIG d   1      -2.275  91.301 116.783  0.00  0.00     0.381 N 
ATOM     19  H   LIG d   1      -1.543  91.597 117.397  0.00  0.00    -0.090 HD
ATOM     20  H   LIG d   1      -1.977  91.459 115.837  0.00  0.00    -0.090 HD
ATOM     21  H   LIG d   1      -2.463  90.332 116.923  0.00  0.00    -0.090 HD
ENDBRANCH   5  18
BRANCH   3  22
ATOM     22  C   LIG d   1      -6.997  91.603 116.040  0.00  0.00     0.382 C 
ATOM     23  O   LIG d   1      -7.383  90.424 115.851  0.00  0.00    -0.241 OA
ATOM     24  O   LIG d   1      -7.555  92.536 115.434  0.00  0.00    -0.241 OA
ENDBRANCH   3  22
TORSDOF 7
ENDMDL
MODEL 3
REMARK VINA RESULT:      -4.9      0.672      1.432
REMARK  7 active torsions:
REMARK  status: ('A' for Active; 'I' for Inactive)
REMARK    1  A    between atoms: C_2  and  C_3 
REMARK    2  A    between atoms: C_3  and  O_6 
REMARK    3  A    between atoms: C_3  and  C_4 
REMARK    4  A    between atoms: C_7  and  O_6 
REMARK    5  A    between atoms: C_9  and  C_10 
REMARK    6  A    between atoms: N_15  and  C_14 
REMARK    7  A    between atoms: N_20  and  C_19 
REMARK       I    between atoms: C_22  and  N_20 
ROOT
ATOM      1  C   LIG d   1      -4.494  92.696 118.886  0.00  0.00     0.161 C 
ATOM      2  C   LIG d   1      -5.719  93.382 118.916  0.00  0.00     0.016 C 
ATOM      3  C   LIG d   1      -6.730  93.213 117.942  0.00  0.00     0.038 C 
ATOM      4  C   LIG d   1      -6.644  92.227 116.948  0.00  0.00     0.028 C 
ATOM      5  C   LIG d   1      -5.210  91.861 116.579  0.00  0.00    -0.047 C 
ATOM      6  C   LIG d   1      -4.427  91.535 117.872  0.00  0.00     0.091 C 
ENDROOT
BRANCH   1   7
ATOM      7  O   LIG d   1      -4.164  92.226 120.208  0.00  0.00    -0.368 OA
BRANCH   7   8
ATOM      8  C   LIG d   1      -3.052  92.887 120.860  0.00  0.00     0.119 C 
BRANCH   8   9
ATOM      9  C   LIG d   1      -3.633  93.789 121.966  0.00  0.00     0.028 C 
ATOM     10  C   LIG d   1      -3.523  95.284 121.621  0.00  0.00     0.006 C 
ENDBRANCH   8   9
BRANCH   8  11
ATOM     11  C   LIG d   1      -2.327  93.835 119.901  0.00  0.00     0.028 C 
ATOM     12  C   LIG d   1      -0.873  93.414 119.632  0.00  0.00     0.006 C 
ENDBRANCH   8  11
ENDBRANCH   7   8
ENDBRANCH   1   7
BRANCH   6  13
ATOM     13  N   LIG d   1      -2.993  91.249 117.609  0.00  0.00    -0.311 N 
ATOM     14  C   LIG d   1      -2.386  90.128 117.996  0.00  0.00     0.210 C 
ATOM     15  C   LIG d   1      -0.898  90.043 117.641  0.00  0.00     0.109 C 
ATOM     16  O   LIG d   1      -2.946  89.183 118.571  0.00  0.00    -0.276 OA
ATOM     17  H   LIG d   1      -2.470  91.949 117.120  0.00  0.00     0.149 HD
ENDBRANCH   6  13
BRANCH   5  18
ATOM     18  N   LIG d   1      -5.267  90.729 115.636  0.00  0.00     0.381 N 
ATOM     19  H   LIG d   1      -5.772  89.970 116.049  0.00  0.00    -0.090 HD
ATOM     20  H   LIG d   1      -4.331  90.418 115.444  0.00  0.00    -0.090 HD
ATOM     21  H   LIG d   1      -5.711  91.011 114.790  0.00  0.00    -0.090 HD
ENDBRANCH   5  18
BRANCH   3  22
ATOM     22  C   LIG d   1      -7.825  94.064 117.933  0.00  0.00     0.382 C 
ATOM     23  O   LIG d   1      -7.687  95.267 118.262  0.00  0.00    -0.241 OA
ATOM     24  O   LIG d   1      -8.957  93.633 117.643  0.00  0.00    -0.241 OA
ENDBRANCH   3  22
TORSDOF 7
ENDMDL
MODEL 4
REMARK VINA RESULT:      -4.9      2.878      5.890
REMARK  7 active torsions:
REMARK  status: ('A' for Active; 'I' for Inactive)
REMARK    1  A    between atoms: C_2  and  C_3 
REMARK    2  A    between atoms: C_3  and  O_6 
REMARK    3  A    between atoms: C_3  and  C_4 
REMARK    4  A    between atoms: C_7  and  O_6 
REMARK    5  A    between atoms: C_9  and  C_10 
REMARK    6  A    between atoms: N_15  and  C_14 
REMARK    7  A    between atoms: N_20  and  C_19 
REMARK       I    between atoms: C_22  and  N_20 
ROOT
ATOM      1  C   LIG d   1      -0.967  91.341 116.992  0.00  0.00     0.161 C 
ATOM      2  C   LIG d   1       0.227  91.864 117.516  0.00  0.00     0.016 C 
ATOM      3  C   LIG d   1       0.294  93.078 118.238  0.00  0.00     0.038 C 
ATOM      4  C   LIG d   1      -0.860  93.779 118.619  0.00  0.00     0.028 C 
ATOM      5  C   LIG d   1      -2.042  93.554 117.681  0.00  0.00    -0.047 C 
ATOM      6  C   LIG d   1      -2.251  92.034 117.493  0.00  0.00     0.091 C 
ENDROOT
BRANCH   1   7
ATOM      7  O   LIG d   1      -1.032  89.923 117.246  0.00  0.00    -0.368 OA
BRANCH   7   8
ATOM      8  C   LIG d   1      -1.427  89.533 118.584  0.00  0.00     0.119 C 
BRANCH   8   9
ATOM      9  C   LIG d   1      -0.370  88.541 119.108  0.00  0.00     0.028 C 
ATOM     10  C   LIG d   1       0.145  87.597 118.008  0.00  0.00     0.006 C 
ENDBRANCH   8   9
BRANCH   8  11
ATOM     11  C   LIG d   1      -2.744  88.752 118.570  0.00  0.00     0.028 C 
ATOM     12  C   LIG d   1      -3.075  88.118 119.931  0.00  0.00     0.006 C 
ENDBRANCH   8  11
ENDBRANCH   7   8
ENDBRANCH   1   7
BRANCH   6  13
ATOM     13  N   LIG d   1      -3.335  91.727 116.523  0.00  0.00    -0.311 N 
ATOM     14  C   LIG d   1      -4.610  91.569 116.875  0.00  0.00     0.210 C 
ATOM     15  C   LIG d   1      -5.562  91.238 115.722  0.00  0.00     0.109 C 
ATOM     16  O   LIG d   1      -5.048  91.704 118.027  0.00  0.00    -0.276 OA
ATOM     17  H   LIG d   1      -3.073  91.632 115.562  0.00  0.00     0.149 HD
ENDBRANCH   6  13
BRANCH   5  18
ATOM     18  N   LIG d   1      -3.213  94.231 118.270  0.00  0.00     0.381 N 
ATOM     19  H   LIG d   1      -2.940  95.119 118.641  0.00  0.00    -0.090 HD
ATOM     20  H   LIG d   1      -3.567  93.669 119.024  0.00  0.00    -0.090 HD
ATOM     21  H   LIG d   1      -3.919  94.355 117.578  0.00  0.00    -0.090 HD
ENDBRANCH   5  18
BRANCH   3  22
ATOM     22  C   LIG d   1       1.530  93.623 118.553  0.00  0.00     0.382 C 
ATOM     23  O   LIG d   1       2.572  93.157 118.032  0.00  0.00    -0.241 OA
ATOM     24  O   LIG d   1       1.619  94.545 119.385  0.00  0.00    -0.241 OA
ENDBRANCH   3  22
TORSDOF 7
ENDMDL
MODEL 5
REMARK VINA RESULT:      -4.6      3.401      6.765
REMARK  7 active torsions:
REMARK  status: ('A' for Active; 'I' for Inactive)
REMARK    1  A    between atoms: C_2  and  C_3 
REMARK    2  A    between atoms: C_3  and  O_6 
REMARK    3  A    between atoms: C_3  and  C_4 
REMARK    4  A    between atoms: C_7  and  O_6 
REMARK    5  A    between atoms: C_9  and  C_10 
REMARK    6  A    between atoms: N_15  and  C_14 
REMARK    7  A    between atoms: N_20  and  C_19 
REMARK       I    between atoms: C_22  and  N_20 
ROOT
ATOM      1  C   LIG d   1      -0.404  90.474 117.748  0.00  0.00     0.161 C 
ATOM      2  C   LIG d   1       0.974  90.628 117.976  0.00  0.00     0.016 C 
ATOM      3  C   LIG d   1       1.671  91.836 117.744  0.00  0.00     0.038 C 
ATOM      4  C   LIG d   1       1.004  93.024 117.409  0.00  0.00     0.028 C 
ATOM      5  C   LIG d   1      -0.314  92.793 116.679  0.00  0.00    -0.047 C 
ATOM      6  C   LIG d   1      -1.167  91.790 117.488  0.00  0.00     0.091 C 
ENDROOT
BRANCH   1   7
ATOM      7  O   LIG d   1      -1.003  89.755 118.844  0.00  0.00    -0.368 OA
BRANCH   7   8
ATOM      8  C   LIG d   1      -1.685  88.523 118.501  0.00  0.00     0.119 C 
BRANCH   8   9
ATOM      9  C   LIG d   1      -3.114  88.610 119.071  0.00  0.00     0.028 C 
ATOM     10  C   LIG d   1      -3.291  87.761 120.341  0.00  0.00     0.006 C 
ENDBRANCH   8   9
BRANCH   8  11
ATOM     11  C   LIG d   1      -1.043  87.319 119.196  0.00  0.00     0.028 C 
ATOM     12  C   LIG d   1       0.215  86.814 118.473  0.00  0.00     0.006 C 
ENDBRANCH   8  11
ENDBRANCH   7   8
ENDBRANCH   1   7
BRANCH   6  13
ATOM     13  N   LIG d   1      -2.439  91.444 116.802  0.00  0.00    -0.311 N 
ATOM     14  C   LIG d   1      -3.626  91.920 117.174  0.00  0.00     0.210 C 
ATOM     15  C   LIG d   1      -4.812  91.421 116.343  0.00  0.00     0.109 C 
ATOM     16  O   LIG d   1      -3.805  92.733 118.093  0.00  0.00    -0.276 OA
ATOM     17  H   LIG d   1      -2.382  90.814 116.026  0.00  0.00     0.149 HD
ENDBRANCH   6  13
BRANCH   5  18
ATOM     18  N   LIG d   1      -0.968  94.105 116.514  0.00  0.00     0.381 N 
ATOM     19  H   LIG d   1      -1.246  94.228 115.560  0.00  0.00    -0.090 HD
ATOM     20  H   LIG d   1      -0.309  94.828 116.745  0.00  0.00    -0.090 HD
ATOM     21  H   LIG d   1      -1.763  94.168 117.110  0.00  0.00    -0.090 HD
ENDBRANCH   5  18
BRANCH   3  22
ATOM     22  C   LIG d   1       3.056  91.853 117.808  0.00  0.00     0.382 C 
ATOM     23  O   LIG d   1       3.707  92.648 117.088  0.00  0.00    -0.241 OA
ATOM     24  O   LIG d   1       3.664  91.053 118.544  0.00  0.00    -0.241 OA
ENDBRANCH   3  22
TORSDOF 7
ENDMDL
MODEL 6
REMARK VINA RESULT:      -4.4      2.733      4.447
REMARK  7 active torsions:
REMARK  status: ('A' for Active; 'I' for Inactive)
REMARK    1  A    between atoms: C_2  and  C_3 
REMARK    2  A    between atoms: C_3  and  O_6 
REMARK    3  A    between atoms: C_3  and  C_4 
REMARK    4  A    between atoms: C_7  and  O_6 
REMARK    5  A    between atoms: C_9  and  C_10 
REMARK    6  A    between atoms: N_15  and  C_14 
REMARK    7  A    between atoms: N_20  and  C_19 
REMARK       I    between atoms: C_22  and  N_20 
ROOT
ATOM      1  C   LIG d   1      -4.494  92.959 118.743  0.00  0.00     0.161 C 
ATOM      2  C   LIG d   1      -4.877  92.180 117.638  0.00  0.00     0.016 C 
ATOM      3  C   LIG d   1      -6.211  92.077 117.184  0.00  0.00     0.038 C 
ATOM      4  C   LIG d   1      -7.239  92.870 117.715  0.00  0.00     0.028 C 
ATOM      5  C   LIG d   1      -6.993  93.293 119.159  0.00  0.00    -0.047 C 
ATOM      6  C   LIG d   1      -5.584  93.919 119.266  0.00  0.00     0.091 C 
ENDROOT
BRANCH   1   7
ATOM      7  O   LIG d   1      -3.291  93.689 118.433  0.00  0.00    -0.368 OA
BRANCH   7   8
ATOM      8  C   LIG d   1      -2.045  92.977 118.630  0.00  0.00     0.119 C 
BRANCH   8   9
ATOM      9  C   LIG d   1      -1.025  93.978 119.206  0.00  0.00     0.028 C 
ATOM     10  C   LIG d   1      -0.610  95.048 118.183  0.00  0.00     0.006 C 
ENDBRANCH   8   9
BRANCH   8  11
ATOM     11  C   LIG d   1      -1.450  92.515 117.296  0.00  0.00     0.028 C 
ATOM     12  C   LIG d   1      -1.006  91.044 117.318  0.00  0.00     0.006 C 
ENDBRANCH   8  11
ENDBRANCH   7   8
ENDBRANCH   1   7
BRANCH   6  13
ATOM     13  N   LIG d   1      -5.229  94.283 120.663  0.00  0.00    -0.311 N 
ATOM     14  C   LIG d   1      -5.407  95.502 121.170  0.00  0.00     0.210 C 
ATOM     15  C   LIG d   1      -4.956  95.669 122.624  0.00  0.00     0.109 C 
ATOM     16  O   LIG d   1      -5.926  96.451 120.564  0.00  0.00    -0.276 OA
ATOM     17  H   LIG d   1      -4.832  93.564 121.235  0.00  0.00     0.149 HD
ENDBRANCH   6  13
BRANCH   5  18
ATOM     18  N   LIG d   1      -8.070  94.226 119.540  0.00  0.00     0.381 N 
ATOM     19  H   LIG d   1      -8.960  93.785 119.415  0.00  0.00    -0.090 HD
ATOM     20  H   LIG d   1      -8.030  95.031 118.941  0.00  0.00    -0.090 HD
ATOM     21  H   LIG d   1      -7.960  94.504 120.491  0.00  0.00    -0.090 HD
ENDBRANCH   5  18
BRANCH   3  22
ATOM     22  C   LIG d   1      -6.536  91.142 116.213  0.00  0.00     0.382 C 
ATOM     23  O   LIG d   1      -7.704  90.687 116.146  0.00  0.00    -0.241 OA
ATOM     24  O   LIG d   1      -5.666  90.714 115.431  0.00  0.00    -0.241 OA
ENDBRANCH   3  22
TORSDOF 7
ENDMDL
MODEL 7
REMARK VINA RESULT:      -4.3      2.507      5.708
REMARK  7 active torsions:
REMARK  status: ('A' for Active; 'I' for Inactive)
REMARK    1  A    between atoms: C_2  and  C_3 
REMARK    2  A    between atoms: C_3  and  O_6 
REMARK    3  A    between atoms: C_3  and  C_4 
REMARK    4  A    between atoms: C_7  and  O_6 
REMARK    5  A    between atoms: C_9  and  C_10 
REMARK    6  A    between atoms: N_15  and  C_14 
REMARK    7  A    between atoms: N_20  and  C_19 
REMARK       I    between atoms: C_22  and  N_20 
ROOT
ATOM      1  C   LIG d   1      -2.765  90.994 117.532  0.00  0.00     0.161 C 
ATOM      2  C   LIG d   1      -1.403  90.709 117.338  0.00  0.00     0.016 C 
ATOM      3  C   LIG d   1      -0.399  91.703 117.298  0.00  0.00     0.038 C 
ATOM      4  C   LIG d   1      -0.671  93.046 117.601  0.00  0.00     0.028 C 
ATOM      5  C   LIG d   1      -2.110  93.454 117.305  0.00  0.00    -0.047 C 
ATOM      6  C   LIG d   1      -3.067  92.441 117.975  0.00  0.00     0.091 C 
ENDROOT
BRANCH   1   7
ATOM      7  O   LIG d   1      -3.333  90.055 118.466  0.00  0.00    -0.368 OA
BRANCH   7   8
ATOM      8  C   LIG d   1      -2.447  89.579 119.509  0.00  0.00     0.119 C 
BRANCH   8   9
ATOM      9  C   LIG d   1      -2.666  88.060 119.645  0.00  0.00     0.028 C 
ATOM     10  C   LIG d   1      -1.367  87.260 119.448  0.00  0.00     0.006 C 
ENDBRANCH   8   9
BRANCH   8  11
ATOM     11  C   LIG d   1      -2.824  90.167 120.872  0.00  0.00     0.028 C 
ATOM     12  C   LIG d   1      -1.947  91.366 121.267  0.00  0.00     0.006 C 
ENDBRANCH   8  11
ENDBRANCH   7   8
ENDBRANCH   1   7
BRANCH   6  13
ATOM     13  N   LIG d   1      -4.493  92.719 117.665  0.00  0.00    -0.311 N 
ATOM     14  C   LIG d   1      -5.418  92.935 118.599  0.00  0.00     0.210 C 
ATOM     15  C   LIG d   1      -6.832  93.182 118.064  0.00  0.00     0.109 C 
ATOM     16  O   LIG d   1      -5.195  92.978 119.818  0.00  0.00    -0.276 OA
ATOM     17  H   LIG d   1      -4.756  92.734 116.699  0.00  0.00     0.149 HD
ENDBRANCH   6  13
BRANCH   5  18
ATOM     18  N   LIG d   1      -2.292  94.833 117.795  0.00  0.00     0.381 N 
ATOM     19  H   LIG d   1      -3.248  95.108 117.687  0.00  0.00    -0.090 HD
ATOM     20  H   LIG d   1      -1.722  95.451 117.245  0.00  0.00    -0.090 HD
ATOM     21  H   LIG d   1      -2.029  94.892 118.754  0.00  0.00    -0.090 HD
ENDBRANCH   5  18
BRANCH   3  22
ATOM     22  C   LIG d   1       0.889  91.363 116.912  0.00  0.00     0.382 C 
ATOM     23  O   LIG d   1       1.847  92.127 117.183  0.00  0.00    -0.241 OA
ATOM     24  O   LIG d   1       1.099  90.325 116.257  0.00  0.00    -0.241 OA
ENDBRANCH   3  22
TORSDOF 7
ENDMDL
MODEL 8
REMARK VINA RESULT:      -4.2      2.936      4.920
REMARK  7 active torsions:
REMARK  status: ('A' for Active; 'I' for Inactive)
REMARK    1  A    between atoms: C_2  and  C_3 
REMARK    2  A    between atoms: C_3  and  O_6 
REMARK    3  A    between atoms: C_3  and  C_4 
REMARK    4  A    between atoms: C_7  and  O_6 
REMARK    5  A    between atoms: C_9  and  C_10 
REMARK    6  A    between atoms: N_15  and  C_14 
REMARK    7  A    between atoms: N_20  and  C_19 
REMARK       I    between atoms: C_22  and  N_20 
ROOT
ATOM      1  C   LIG d   1      -1.447  90.065 117.972  0.00  0.00     0.161 C 
ATOM      2  C   LIG d   1      -2.837  90.268 117.982  0.00  0.00     0.016 C 
ATOM      3  C   LIG d   1      -3.450  91.473 117.567  0.00  0.00     0.038 C 
ATOM      4  C   LIG d   1      -2.719  92.509 116.968  0.00  0.00     0.028 C 
ATOM      5  C   LIG d   1      -1.258  92.548 117.402  0.00  0.00    -0.047 C 
ATOM      6  C   LIG d   1      -0.641  91.143 117.218  0.00  0.00     0.091 C 
ENDROOT
BRANCH   1   7
ATOM      7  O   LIG d   1      -1.148  88.756 117.447  0.00  0.00    -0.368 OA
BRANCH   7   8
ATOM      8  C   LIG d   1      -0.683  87.775 118.406  0.00  0.00     0.119 C 
BRANCH   8   9
ATOM      9  C   LIG d   1      -0.550  88.485 119.767  0.00  0.00     0.028 C 
ATOM     10  C   LIG d   1       0.888  88.447 120.311  0.00  0.00     0.006 C 
ENDBRANCH   8   9
BRANCH   8  11
ATOM     11  C   LIG d   1       0.727  87.286 118.064  0.00  0.00     0.028 C 
ATOM     12  C   LIG d   1       0.869  86.857 116.595  0.00  0.00     0.006 C 
ENDBRANCH   8  11
ENDBRANCH   7   8
ENDBRANCH   1   7
BRANCH   6  13
ATOM     13  N   LIG d   1       0.764  91.073 117.698  0.00  0.00    -0.311 N 
ATOM     14  C   LIG d   1       1.762  90.571 116.973  0.00  0.00     0.210 C 
ATOM     15  C   LIG d   1       3.129  90.575 117.665  0.00  0.00     0.109 C 
ATOM     16  O   LIG d   1       1.651  90.153 115.811  0.00  0.00    -0.276 OA
ATOM     17  H   LIG d   1       0.949  91.419 118.619  0.00  0.00     0.149 HD
ENDBRANCH   6  13
BRANCH   5  18
ATOM     18  N   LIG d   1      -0.582  93.586 116.600  0.00  0.00     0.381 N 
ATOM     19  H   LIG d   1      -1.104  94.438 116.640  0.00  0.00    -0.090 HD
ATOM     20  H   LIG d   1      -0.546  93.284 115.642  0.00  0.00    -0.090 HD
ATOM     21  H   LIG d   1       0.341  93.735 116.943  0.00  0.00    -0.090 HD
ENDBRANCH   5  18
BRANCH   3  22
ATOM     22  C   LIG d   1      -4.806  91.665 117.787  0.00  0.00     0.382 C 
ATOM     23  O   LIG d   1      -5.648  91.053 117.087  0.00  0.00    -0.241 OA
ATOM     24  O   LIG d   1      -5.197  92.476 118.648  0.00  0.00    -0.241 OA
ENDBRANCH   3  22
TORSDOF 7
ENDMDL
MODEL 9
REMARK VINA RESULT:      -4.2      2.834      5.359
REMARK  7 active torsions:
REMARK  status: ('A' for Active; 'I' for Inactive)
REMARK    1  A    between atoms: C_2  and  C_3 
REMARK    2  A    between atoms: C_3  and  O_6 
REMARK    3  A    between atoms: C_3  and  C_4 
REMARK    4  A    between atoms: C_7  and  O_6 
REMARK    5  A    between atoms: C_9  and  C_10 
REMARK    6  A    between atoms: N_15  and  C_14 
REMARK    7  A    between atoms: N_20  and  C_19 
REMARK       I    between atoms: C_22  and  N_20 
ROOT
ATOM      1  C   LIG d   1      -1.496  93.066 117.320  0.00  0.00     0.161 C 
ATOM      2  C   LIG d   1      -0.510  93.747 118.054  0.00  0.00     0.016 C 
ATOM      3  C   LIG d   1      -0.743  94.320 119.325  0.00  0.00     0.038 C 
ATOM      4  C   LIG d   1      -1.945  94.117 120.021  0.00  0.00     0.028 C 
ATOM      5  C   LIG d   1      -3.139  93.866 119.106  0.00  0.00    -0.047 C 
ATOM      6  C   LIG d   1      -2.780  92.739 118.111  0.00  0.00     0.091 C 
ENDROOT
BRANCH   1   7
ATOM      7  O   LIG d   1      -0.939  91.865 116.751  0.00  0.00    -0.368 OA
BRANCH   7   8
ATOM      8  C   LIG d   1      -0.061  91.099 117.613  0.00  0.00     0.119 C 
BRANCH   8   9
ATOM      9  C   LIG d   1       1.185  90.723 116.787  0.00  0.00     0.028 C 
ATOM     10  C   LIG d   1       2.388  91.630 117.095  0.00  0.00     0.006 C 
ENDBRANCH   8   9
BRANCH   8  11
ATOM     11  C   LIG d   1      -0.699  89.766 118.015  0.00  0.00     0.028 C 
ATOM     12  C   LIG d   1      -1.025  89.690 119.515  0.00  0.00     0.006 C 
ENDBRANCH   8  11
ENDBRANCH   7   8
ENDBRANCH   1   7
BRANCH   6  13
ATOM     13  N   LIG d   1      -3.864  92.488 117.125  0.00  0.00    -0.311 N 
ATOM     14  C   LIG d   1      -4.449  91.302 116.965  0.00  0.00     0.210 C 
ATOM     15  C   LIG d   1      -5.529  91.256 115.880  0.00  0.00     0.109 C 
ATOM     16  O   LIG d   1      -4.198  90.293 117.641  0.00  0.00    -0.276 OA
ATOM     17  H   LIG d   1      -4.151  93.260 116.556  0.00  0.00     0.149 HD
ENDBRANCH   6  13
BRANCH   5  18
ATOM     18  N   LIG d   1      -4.294  93.535 119.962  0.00  0.00     0.381 N 
ATOM     19  H   LIG d   1      -4.430  92.544 119.980  0.00  0.00    -0.090 HD
ATOM     20  H   LIG d   1      -5.118  93.960 119.575  0.00  0.00    -0.090 HD
ATOM     21  H   LIG d   1      -4.141  93.873 120.887  0.00  0.00    -0.090 HD
ENDBRANCH   5  18
BRANCH   3  22
ATOM     22  C   LIG d   1       0.219  95.138 119.897  0.00  0.00     0.382 C 
ATOM     23  O   LIG d   1       1.409  94.748 119.973  0.00  0.00    -0.241 OA
ATOM     24  O   LIG d   1      -0.096  96.243 120.378  0.00  0.00    -0.241 OA
ENDBRANCH   3  22
TORSDOF 7
ENDMDL
