MODEL 1
REMARK VINA RESULT:      -5.5      0.000      0.000
REMARK  7 active torsions:
REMARK  status: ('A' for Active; 'I' for Inactive)
REMARK    1  A    between atoms: C_2  and  C_3 
REMARK    2  A    between atoms: C_3  and  O_6 
REMARK    3  A    between atoms: C_3  and  C_4 
REMARK    4  A    between atoms: C_7  and  O_6 
REMARK    5  A    between atoms: C_9  and  C_10 
REMARK    6  A    between atoms: N_15  and  C_14 
REMARK    7  A    between atoms: N_20  and  C_19 
REMARK       I    between atoms: C_22  and  N_20 
ROOT
ATOM      1  C   LIG d   1      -5.385  92.191 119.025  0.00  0.00     0.161 C 
ATOM      2  C   LIG d   1      -5.522  91.230 118.010  0.00  0.00     0.016 C 
ATOM      3  C   LIG d   1      -6.378  91.391 116.896  0.00  0.00     0.038 C 
ATOM      4  C   LIG d   1      -7.046  92.598 116.643  0.00  0.00     0.028 C 
ATOM      5  C   LIG d   1      -7.332  93.408 117.903  0.00  0.00    -0.047 C 
ATOM      6  C   LIG d   1      -6.022  93.561 118.709  0.00  0.00     0.091 C 
ENDROOT
BRANCH   1   7
ATOM      7  O   LIG d   1      -3.993  92.351 119.363  0.00  0.00    -0.368 OA
BRANCH   7   8
ATOM      8  C   LIG d   1      -3.069  92.403 118.248  0.00  0.00     0.119 C 
BRANCH   8   9
ATOM      9  C   LIG d   1      -1.860  91.518 118.607  0.00  0.00     0.028 C 
ATOM     10  C   LIG d   1      -1.988  90.093 118.044  0.00  0.00     0.006 C 
ENDBRANCH   8   9
BRANCH   8  11
ATOM     11  C   LIG d   1      -2.500  93.813 118.062  0.00  0.00     0.028 C 
ATOM     12  C   LIG d   1      -1.026  93.807 117.625  0.00  0.00     0.006 C 
ENDBRANCH   8  11
ENDBRANCH   7   8
ENDBRANCH   1   7
BRANCH   6  13
ATOM     13  N   LIG d   1      -6.229  94.269 119.999  0.00  0.00    -0.311 N 
ATOM     14  C   LIG d   1      -5.607  95.401 120.322  0.00  0.00     0.210 C 
ATOM     15  C   LIG d   1      -5.950  95.954 121.709  0.00  0.00     0.109 C 
ATOM     16  O   LIG d   1      -4.828  96.017 119.580  0.00  0.00    -0.276 OA
ATOM     17  H   LIG d   1      -6.869  93.855 120.649  0.00  0.00     0.149 HD
ENDBRANCH   6  13
BRANCH   5  18
ATOM     18  N   LIG d   1      -7.905  94.700 117.481  0.00  0.00     0.381 N 
ATOM     19  H   LIG d   1      -7.888  95.344 118.247  0.00  0.00    -0.090 HD
ATOM     20  H   LIG d   1      -8.862  94.558 117.209  0.00  0.00    -0.090 HD
ATOM     21  H   LIG d   1      -7.386  95.070 116.716  0.00  0.00    -0.090 HD
ENDBRANCH   5  18
BRANCH   3  22
ATOM     22  C   LIG d   1      -6.603  90.322 116.042  0.00  0.00     0.382 C 
ATOM     23  O   LIG d   1      -7.760  89.853 115.916  0.00  0.00    -0.241 OA
ATOM     24  O   LIG d   1      -5.656  89.791 115.431  0.00  0.00    -0.241 OA
ENDBRANCH   3  22
TORSDOF 7
ENDMDL
MODEL 2
REMARK VINA RESULT:      -5.3      2.107      4.350
REMARK  7 active torsions:
REMARK  status: ('A' for Active; 'I' for Inactive)
REMARK    1  A    between atoms: C_2  and  C_3 
REMARK    2  A    between atoms: C_3  and  O_6 
REMARK    3  A    between atoms: C_3  and  C_4 
REMARK    4  A    between atoms: C_7  and  O_6 
REMARK    5  A    between atoms: C_9  and  C_10 
REMARK    6  A    between atoms: N_15  and  C_14 
REMARK    7  A    between atoms: N_20  and  C_19 
REMARK       I    between atoms: C_22  and  N_20 
ROOT
ATOM      1  C   LIG d   1      -6.369  93.380 118.168  0.00  0.00     0.161 C 
ATOM      2  C   LIG d   1      -6.879  92.329 117.387  0.00  0.00     0.016 C 
ATOM      3  C   LIG d   1      -6.071  91.319 116.817  0.00  0.00     0.038 C 
ATOM      4  C   LIG d   1      -4.705  91.205 117.118  0.00  0.00     0.028 C 
ATOM      5  C   LIG d   1      -4.055  92.532 117.492  0.00  0.00    -0.047 C 
ATOM      6  C   LIG d   1      -4.897  93.209 118.598  0.00  0.00     0.091 C 
ENDROOT
BRANCH   1   7
ATOM      7  O   LIG d   1      -7.208  93.583 119.322  0.00  0.00    -0.368 OA
BRANCH   7   8
ATOM      8  C   LIG d   1      -8.069  94.747 119.287  0.00  0.00     0.119 C 
BRANCH   8   9
ATOM      9  C   LIG d   1      -7.618  95.621 118.101  0.00  0.00     0.028 C 
ATOM     10  C   LIG d   1      -7.105  97.000 118.549  0.00  0.00     0.006 C 
ENDBRANCH   8   9
BRANCH   8  11
ATOM     11  C   LIG d   1      -7.876  95.621 120.531  0.00  0.00     0.028 C 
ATOM     12  C   LIG d   1      -9.089  95.592 121.473  0.00  0.00     0.006 C 
ENDBRANCH   8  11
ENDBRANCH   7   8
ENDBRANCH   1   7
BRANCH   6  13
ATOM     13  N   LIG d   1      -4.377  94.553 118.964  0.00  0.00    -0.311 N 
ATOM     14  C   LIG d   1      -4.248  94.971 120.222  0.00  0.00     0.210 C 
ATOM     15  C   LIG d   1      -3.711  96.398 120.377  0.00  0.00     0.109 C 
ATOM     16  O   LIG d   1      -4.497  94.285 121.224  0.00  0.00    -0.276 OA
ATOM     17  H   LIG d   1      -4.121  95.163 118.213  0.00  0.00     0.149 HD
ENDBRANCH   6  13
BRANCH   5  18
ATOM     18  N   LIG d   1      -2.670  92.247 117.913  0.00  0.00     0.381 N 
ATOM     19  H   LIG d   1      -2.588  92.358 118.904  0.00  0.00    -0.090 HD
ATOM     20  H   LIG d   1      -2.053  92.905 117.470  0.00  0.00    -0.090 HD
ATOM     21  H   LIG d   1      -2.419  91.319 117.654  0.00  0.00    -0.090 HD
ENDBRANCH   5  18
BRANCH   3  22
ATOM     22  C   LIG d   1      -6.621  90.432 115.905  0.00  0.00     0.382 C 
ATOM     23  O   LIG d   1      -5.920  89.506 115.430  0.00  0.00    -0.241 OA
ATOM     24  O   LIG d   1      -7.796  90.572 115.516  0.00  0.00    -0.241 OA
ENDBRANCH   3  22
TORSDOF 7
ENDMDL
MODEL 3
REMARK VINA RESULT:      -5.0      1.764      2.118
REMARK  7 active torsions:
REMARK  status: ('A' for Active; 'I' for Inactive)
REMARK    1  A    between atoms: C_2  and  C_3 
REMARK    2  A    between atoms: C_3  and  O_6 
REMARK    3  A    between atoms: C_3  and  C_4 
REMARK    4  A    between atoms: C_7  and  O_6 
REMARK    5  A    between atoms: C_9  and  C_10 
REMARK    6  A    between atoms: N_15  and  C_14 
REMARK    7  A    between atoms: N_20  and  C_19 
REMARK       I    between atoms: C_22  and  N_20 
ROOT
ATOM      1  C   LIG d   1      -5.227  93.545 119.322  0.00  0.00     0.161 C 
ATOM      2  C   LIG d   1      -4.745  92.414 118.643  0.00  0.00     0.016 C 
ATOM      3  C   LIG d   1      -5.420  91.814 117.555  0.00  0.00     0.038 C 
ATOM      4  C   LIG d   1      -6.554  92.399 116.972  0.00  0.00     0.028 C 
ATOM      5  C   LIG d   1      -7.358  93.260 117.942  0.00  0.00    -0.047 C 
ATOM      6  C   LIG d   1      -6.404  94.263 118.630  0.00  0.00     0.091 C 
ENDROOT
BRANCH   1   7
ATOM      7  O   LIG d   1      -4.146  94.469 119.559  0.00  0.00    -0.368 OA
BRANCH   7   8
ATOM      8  C   LIG d   1      -2.807  93.938 119.403  0.00  0.00     0.119 C 
BRANCH   8   9
ATOM      9  C   LIG d   1      -2.082  94.106 120.752  0.00  0.00     0.028 C 
ATOM     10  C   LIG d   1      -1.892  92.767 121.486  0.00  0.00     0.006 C 
ENDBRANCH   8   9
BRANCH   8  11
ATOM     11  C   LIG d   1      -1.994  94.763 118.401  0.00  0.00     0.028 C 
ATOM     12  C   LIG d   1      -1.046  93.902 117.551  0.00  0.00     0.006 C 
ENDBRANCH   8  11
ENDBRANCH   7   8
ENDBRANCH   1   7
BRANCH   6  13
ATOM     13  N   LIG d   1      -7.094  95.087 119.657  0.00  0.00    -0.311 N 
ATOM     14  C   LIG d   1      -7.623  96.283 119.403  0.00  0.00     0.210 C 
ATOM     15  C   LIG d   1      -8.271  96.973 120.607  0.00  0.00     0.109 C 
ATOM     16  O   LIG d   1      -7.645  96.824 118.287  0.00  0.00    -0.276 OA
ATOM     17  H   LIG d   1      -7.150  94.710 120.583  0.00  0.00     0.149 HD
ENDBRANCH   6  13
BRANCH   5  18
ATOM     18  N   LIG d   1      -8.430  93.917 117.171  0.00  0.00     0.381 N 
ATOM     19  H   LIG d   1      -9.239  93.329 117.148  0.00  0.00    -0.090 HD
ATOM     20  H   LIG d   1      -8.114  94.055 116.227  0.00  0.00    -0.090 HD
ATOM     21  H   LIG d   1      -8.659  94.794 117.584  0.00  0.00    -0.090 HD
ENDBRANCH   5  18
BRANCH   3  22
ATOM     22  C   LIG d   1      -4.983  90.593 117.064  0.00  0.00     0.382 C 
ATOM     23  O   LIG d   1      -5.421  90.165 115.969  0.00  0.00    -0.241 OA
ATOM     24  O   LIG d   1      -4.191  89.894 117.724  0.00  0.00    -0.241 OA
ENDBRANCH   3  22
TORSDOF 7
ENDMDL
MODEL 4
REMARK VINA RESULT:      -5.0      2.480      3.736
REMARK  7 active torsions:
REMARK  status: ('A' for Active; 'I' for Inactive)
REMARK    1  A    between atoms: C_2  and  C_3 
REMARK    2  A    between atoms: C_3  and  O_6 
REMARK    3  A    between atoms: C_3  and  C_4 
REMARK    4  A    between atoms: C_7  and  O_6 
REMARK    5  A    between atoms: C_9  and  C_10 
REMARK    6  A    between atoms: N_15  and  C_14 
REMARK    7  A    between atoms: N_20  and  C_19 
REMARK       I    between atoms: C_22  and  N_20 
ROOT
ATOM      1  C   LIG d   1      -3.009  90.814 118.185  0.00  0.00     0.161 C 
ATOM      2  C   LIG d   1      -4.076  90.335 117.408  0.00  0.00     0.016 C 
ATOM      3  C   LIG d   1      -5.180  91.131 117.027  0.00  0.00     0.038 C 
ATOM      4  C   LIG d   1      -5.219  92.512 117.272  0.00  0.00     0.028 C 
ATOM      5  C   LIG d   1      -4.403  92.933 118.490  0.00  0.00    -0.047 C 
ATOM      6  C   LIG d   1      -2.979  92.346 118.368  0.00  0.00     0.091 C 
ENDROOT
BRANCH   1   7
ATOM      7  O   LIG d   1      -1.759  90.350 117.638  0.00  0.00    -0.368 OA
BRANCH   7   8
ATOM      8  C   LIG d   1      -1.324  89.036 118.066  0.00  0.00     0.119 C 
BRANCH   8   9
ATOM      9  C   LIG d   1      -1.518  88.959 119.593  0.00  0.00     0.028 C 
ATOM     10  C   LIG d   1      -2.235  87.670 120.028  0.00  0.00     0.006 C 
ENDBRANCH   8   9
BRANCH   8  11
ATOM     11  C   LIG d   1       0.179  88.845 117.839  0.00  0.00     0.028 C 
ATOM     12  C   LIG d   1       1.038  89.636 118.838  0.00  0.00     0.006 C 
ENDBRANCH   8  11
ENDBRANCH   7   8
ENDBRANCH   1   7
BRANCH   6  13
ATOM     13  N   LIG d   1      -2.140  92.641 119.559  0.00  0.00    -0.311 N 
ATOM     14  C   LIG d   1      -0.858  92.993 119.484  0.00  0.00     0.210 C 
ATOM     15  C   LIG d   1      -0.173  93.232 120.834  0.00  0.00     0.109 C 
ATOM     16  O   LIG d   1      -0.232  93.161 118.427  0.00  0.00    -0.276 OA
ATOM     17  H   LIG d   1      -2.577  92.558 120.456  0.00  0.00     0.149 HD
ENDBRANCH   6  13
BRANCH   5  18
ATOM     18  N   LIG d   1      -4.418  94.407 118.548  0.00  0.00     0.381 N 
ATOM     19  H   LIG d   1      -4.708  94.708 119.457  0.00  0.00    -0.090 HD
ATOM     20  H   LIG d   1      -5.081  94.752 117.876  0.00  0.00    -0.090 HD
ATOM     21  H   LIG d   1      -3.511  94.766 118.345  0.00  0.00    -0.090 HD
ENDBRANCH   5  18
BRANCH   3  22
ATOM     22  C   LIG d   1      -6.281  90.538 116.428  0.00  0.00     0.382 C 
ATOM     23  O   LIG d   1      -6.125  89.788 115.434  0.00  0.00    -0.241 OA
ATOM     24  O   LIG d   1      -7.431  90.778 116.840  0.00  0.00    -0.241 OA
ENDBRANCH   3  22
TORSDOF 7
ENDMDL
MODEL 5
REMARK VINA RESULT:      -4.9      2.729      4.739
REMARK  7 active torsions:
REMARK  status: ('A' for Active; 'I' for Inactive)
REMARK    1  A    between atoms: C_2  and  C_3 
REMARK    2  A    between atoms: C_3  and  O_6 
REMARK    3  A    between atoms: C_3  and  C_4 
REMARK    4  A    between atoms: C_7  and  O_6 
REMARK    5  A    between atoms: C_9  and  C_10 
REMARK    6  A    between atoms: N_15  and  C_14 
REMARK    7  A    between atoms: N_20  and  C_19 
REMARK       I    between atoms: C_22  and  N_20 
ROOT
ATOM      1  C   LIG d   1      -4.194  93.287 118.810  0.00  0.00     0.161 C 
ATOM      2  C   LIG d   1      -5.460  93.896 118.776  0.00  0.00     0.016 C 
ATOM      3  C   LIG d   1      -6.524  93.434 117.968  0.00  0.00     0.038 C 
ATOM      4  C   LIG d   1      -6.441  92.233 117.248  0.00  0.00     0.028 C 
ATOM      5  C   LIG d   1      -5.015  91.858 116.857  0.00  0.00    -0.047 C 
ATOM      6  C   LIG d   1      -4.119  91.911 118.116  0.00  0.00     0.091 C 
ENDROOT
BRANCH   1   7
ATOM      7  O   LIG d   1      -3.737  93.186 120.173  0.00  0.00    -0.368 OA
BRANCH   7   8
ATOM      8  C   LIG d   1      -4.325  92.126 120.966  0.00  0.00     0.119 C 
BRANCH   8   9
ATOM      9  C   LIG d   1      -5.027  92.783 122.170  0.00  0.00     0.028 C 
ATOM     10  C   LIG d   1      -6.552  92.582 122.141  0.00  0.00     0.006 C 
ENDBRANCH   8   9
BRANCH   8  11
ATOM     11  C   LIG d   1      -3.249  91.218 121.569  0.00  0.00     0.028 C 
ATOM     12  C   LIG d   1      -1.829  91.777 121.388  0.00  0.00     0.006 C 
ENDBRANCH   8  11
ENDBRANCH   7   8
ENDBRANCH   1   7
BRANCH   6  13
ATOM     13  N   LIG d   1      -2.691  91.640 117.806  0.00  0.00    -0.311 N 
ATOM     14  C   LIG d   1      -2.133  90.436 117.917  0.00  0.00     0.210 C 
ATOM     15  C   LIG d   1      -0.642  90.380 117.568  0.00  0.00     0.109 C 
ATOM     16  O   LIG d   1      -2.738  89.403 118.240  0.00  0.00    -0.276 OA
ATOM     17  H   LIG d   1      -2.134  92.416 117.507  0.00  0.00     0.149 HD
ENDBRANCH   6  13
BRANCH   5  18
ATOM     18  N   LIG d   1      -5.060  90.522 116.235  0.00  0.00     0.381 N 
ATOM     19  H   LIG d   1      -4.173  90.309 115.824  0.00  0.00    -0.090 HD
ATOM     20  H   LIG d   1      -5.752  90.525 115.506  0.00  0.00    -0.090 HD
ATOM     21  H   LIG d   1      -5.290  89.835 116.918  0.00  0.00    -0.090 HD
ENDBRANCH   5  18
BRANCH   3  22
ATOM     22  C   LIG d   1      -7.674  94.198 117.844  0.00  0.00     0.382 C 
ATOM     23  O   LIG d   1      -8.766  93.646 117.566  0.00  0.00    -0.241 OA
ATOM     24  O   LIG d   1      -7.626  95.437 117.963  0.00  0.00    -0.241 OA
ENDBRANCH   3  22
TORSDOF 7
ENDMDL
MODEL 6
REMARK VINA RESULT:      -4.8      0.974      1.733
REMARK  7 active torsions:
REMARK  status: ('A' for Active; 'I' for Inactive)
REMARK    1  A    between atoms: C_2  and  C_3 
REMARK    2  A    between atoms: C_3  and  O_6 
REMARK    3  A    between atoms: C_3  and  C_4 
REMARK    4  A    between atoms: C_7  and  O_6 
REMARK    5  A    between atoms: C_9  and  C_10 
REMARK    6  A    between atoms: N_15  and  C_14 
REMARK    7  A    between atoms: N_20  and  C_19 
REMARK       I    between atoms: C_22  and  N_20 
ROOT
ATOM      1  C   LIG d   1      -4.952  92.595 118.211  0.00  0.00     0.161 C 
ATOM      2  C   LIG d   1      -5.250  91.571 117.296  0.00  0.00     0.016 C 
ATOM      3  C   LIG d   1      -6.442  91.530 116.537  0.00  0.00     0.038 C 
ATOM      4  C   LIG d   1      -7.354  92.596 116.529  0.00  0.00     0.028 C 
ATOM      5  C   LIG d   1      -7.340  93.414 117.816  0.00  0.00    -0.047 C 
ATOM      6  C   LIG d   1      -5.883  93.823 118.134  0.00  0.00     0.091 C 
ENDROOT
BRANCH   1   7
ATOM      7  O   LIG d   1      -3.577  92.999 118.060  0.00  0.00    -0.368 OA
BRANCH   7   8
ATOM      8  C   LIG d   1      -2.705  92.725 119.185  0.00  0.00     0.119 C 
BRANCH   8   9
ATOM      9  C   LIG d   1      -1.488  93.662 119.066  0.00  0.00     0.028 C 
ATOM     10  C   LIG d   1      -1.287  94.185 117.634  0.00  0.00     0.006 C 
ENDBRANCH   8   9
BRANCH   8  11
ATOM     11  C   LIG d   1      -2.133  91.306 119.114  0.00  0.00     0.028 C 
ATOM     12  C   LIG d   1      -1.739  90.753 120.493  0.00  0.00     0.006 C 
ENDBRANCH   8  11
ENDBRANCH   7   8
ENDBRANCH   1   7
BRANCH   6  13
ATOM     13  N   LIG d   1      -5.769  94.555 119.423  0.00  0.00    -0.311 N 
ATOM     14  C   LIG d   1      -5.950  95.870 119.537  0.00  0.00     0.210 C 
ATOM     15  C   LIG d   1      -5.765  96.427 120.952  0.00  0.00     0.109 C 
ATOM     16  O   LIG d   1      -6.277  96.622 118.607  0.00  0.00    -0.276 OA
ATOM     17  H   LIG d   1      -5.536  94.017 120.234  0.00  0.00     0.149 HD
ENDBRANCH   6  13
BRANCH   5  18
ATOM     18  N   LIG d   1      -8.234  94.571 117.619  0.00  0.00     0.381 N 
ATOM     19  H   LIG d   1      -8.795  94.708 118.435  0.00  0.00    -0.090 HD
ATOM     20  H   LIG d   1      -8.845  94.380 116.844  0.00  0.00    -0.090 HD
ATOM     21  H   LIG d   1      -7.697  95.390 117.434  0.00  0.00    -0.090 HD
ENDBRANCH   5  18
BRANCH   3  22
ATOM     22  C   LIG d   1      -6.751  90.394 115.803  0.00  0.00     0.382 C 
ATOM     23  O   LIG d   1      -7.948  90.118 115.549  0.00  0.00    -0.241 OA
ATOM     24  O   LIG d   1      -5.850  89.619 115.430  0.00  0.00    -0.241 OA
ENDBRANCH   3  22
TORSDOF 7
ENDMDL
MODEL 7
REMARK VINA RESULT:      -4.8      2.457      4.588
REMARK  7 active torsions:
REMARK  status: ('A' for Active; 'I' for Inactive)
REMARK    1  A    between atoms: C_2  and  C_3 
REMARK    2  A    between atoms: C_3  and  O_6 
REMARK    3  A    between atoms: C_3  and  C_4 
REMARK    4  A    between atoms: C_7  and  O_6 
REMARK    5  A    between atoms: C_9  and  C_10 
REMARK    6  A    between atoms: N_15  and  C_14 
REMARK    7  A    between atoms: N_20  and  C_19 
REMARK       I    between atoms: C_22  and  N_20 
ROOT
ATOM      1  C   LIG d   1      -4.129  93.001 118.055  0.00  0.00     0.161 C 
ATOM      2  C   LIG d   1      -5.227  92.552 117.302  0.00  0.00     0.016 C 
ATOM      3  C   LIG d   1      -5.363  91.222 116.842  0.00  0.00     0.038 C 
ATOM      4  C   LIG d   1      -4.477  90.207 117.234  0.00  0.00     0.028 C 
ATOM      5  C   LIG d   1      -3.082  90.720 117.576  0.00  0.00    -0.047 C 
ATOM      6  C   LIG d   1      -3.209  91.883 118.587  0.00  0.00     0.091 C 
ENDROOT
BRANCH   1   7
ATOM      7  O   LIG d   1      -4.588  93.831 119.141  0.00  0.00    -0.368 OA
BRANCH   7   8
ATOM      8  C   LIG d   1      -6.010  93.791 119.416  0.00  0.00     0.119 C 
BRANCH   8   9
ATOM      9  C   LIG d   1      -6.521  95.245 119.427  0.00  0.00     0.028 C 
ATOM     10  C   LIG d   1      -7.483  95.537 118.263  0.00  0.00     0.006 C 
ENDBRANCH   8   9
BRANCH   8  11
ATOM     11  C   LIG d   1      -6.290  93.252 120.823  0.00  0.00     0.028 C 
ATOM     12  C   LIG d   1      -5.008  92.879 121.584  0.00  0.00     0.006 C 
ENDBRANCH   8  11
ENDBRANCH   7   8
ENDBRANCH   1   7
BRANCH   6  13
ATOM     13  N   LIG d   1      -1.895  92.497 118.911  0.00  0.00    -0.311 N 
ATOM     14  C   LIG d   1      -1.169  92.157 119.974  0.00  0.00     0.210 C 
ATOM     15  C   LIG d   1       0.145  92.928 120.133  0.00  0.00     0.109 C 
ATOM     16  O   LIG d   1      -1.472  91.267 120.783  0.00  0.00    -0.276 OA
ATOM     17  H   LIG d   1      -1.558  93.207 118.290  0.00  0.00     0.149 HD
ENDBRANCH   6  13
BRANCH   5  18
ATOM     18  N   LIG d   1      -2.305  89.581 118.100  0.00  0.00     0.381 N 
ATOM     19  H   LIG d   1      -1.629  89.907 118.762  0.00  0.00    -0.090 HD
ATOM     20  H   LIG d   1      -1.815  89.144 117.339  0.00  0.00    -0.090 HD
ATOM     21  H   LIG d   1      -2.914  88.922 118.533  0.00  0.00    -0.090 HD
ENDBRANCH   5  18
BRANCH   3  22
ATOM     22  C   LIG d   1      -6.372  90.905 115.946  0.00  0.00     0.382 C 
ATOM     23  O   LIG d   1      -7.265  91.746 115.683  0.00  0.00    -0.241 OA
ATOM     24  O   LIG d   1      -6.427  89.772 115.430  0.00  0.00    -0.241 OA
ENDBRANCH   3  22
TORSDOF 7
ENDMDL
MODEL 8
REMARK VINA RESULT:      -4.7      2.255      4.596
REMARK  7 active torsions:
REMARK  status: ('A' for Active; 'I' for Inactive)
REMARK    1  A    between atoms: C_2  and  C_3 
REMARK    2  A    between atoms: C_3  and  O_6 
REMARK    3  A    between atoms: C_3  and  C_4 
REMARK    4  A    between atoms: C_7  and  O_6 
REMARK    5  A    between atoms: C_9  and  C_10 
REMARK    6  A    between atoms: N_15  and  C_14 
REMARK    7  A    between atoms: N_20  and  C_19 
REMARK       I    between atoms: C_22  and  N_20 
ROOT
ATOM      1  C   LIG d   1      -3.924  92.072 118.103  0.00  0.00     0.161 C 
ATOM      2  C   LIG d   1      -3.027  91.029 117.819  0.00  0.00     0.016 C 
ATOM      3  C   LIG d   1      -1.642  91.095 118.100  0.00  0.00     0.038 C 
ATOM      4  C   LIG d   1      -1.083  92.157 118.827  0.00  0.00     0.028 C 
ATOM      5  C   LIG d   1      -1.860  93.461 118.688  0.00  0.00    -0.047 C 
ATOM      6  C   LIG d   1      -3.351  93.192 118.996  0.00  0.00     0.091 C 
ENDROOT
BRANCH   1   7
ATOM      7  O   LIG d   1      -5.129  91.536 118.683  0.00  0.00    -0.368 OA
BRANCH   7   8
ATOM      8  C   LIG d   1      -6.279  91.457 117.804  0.00  0.00     0.119 C 
BRANCH   8   9
ATOM      9  C   LIG d   1      -5.781  91.705 116.367  0.00  0.00     0.028 C 
ATOM     10  C   LIG d   1      -6.075  90.521 115.431  0.00  0.00     0.006 C 
ENDBRANCH   8   9
BRANCH   8  11
ATOM     11  C   LIG d   1      -7.276  92.584 118.088  0.00  0.00     0.028 C 
ATOM     12  C   LIG d   1      -7.281  93.665 116.995  0.00  0.00     0.006 C 
ENDBRANCH   8  11
ENDBRANCH   7   8
ENDBRANCH   1   7
BRANCH   6  13
ATOM     13  N   LIG d   1      -4.197  94.399 118.802  0.00  0.00    -0.311 N 
ATOM     14  C   LIG d   1      -4.941  94.936 119.767  0.00  0.00     0.210 C 
ATOM     15  C   LIG d   1      -5.753  96.166 119.350  0.00  0.00     0.109 C 
ATOM     16  O   LIG d   1      -4.981  94.529 120.938  0.00  0.00    -0.276 OA
ATOM     17  H   LIG d   1      -4.199  94.812 117.890  0.00  0.00     0.149 HD
ENDBRANCH   6  13
BRANCH   5  18
ATOM     18  N   LIG d   1      -1.249  94.444 119.603  0.00  0.00     0.381 N 
ATOM     19  H   LIG d   1      -0.389  94.081 119.964  0.00  0.00    -0.090 HD
ATOM     20  H   LIG d   1      -1.873  94.602 120.375  0.00  0.00    -0.090 HD
ATOM     21  H   LIG d   1      -1.080  95.299 119.122  0.00  0.00    -0.090 HD
ENDBRANCH   5  18
BRANCH   3  22
ATOM     22  C   LIG d   1      -0.795  90.109 117.616  0.00  0.00     0.382 C 
ATOM     23  O   LIG d   1      -0.972  88.913 117.949  0.00  0.00    -0.241 OA
ATOM     24  O   LIG d   1       0.170  90.408 116.888  0.00  0.00    -0.241 OA
ENDBRANCH   3  22
TORSDOF 7
ENDMDL
MODEL 9
REMARK VINA RESULT:      -4.5      2.100      3.461
REMARK  7 active torsions:
REMARK  status: ('A' for Active; 'I' for Inactive)
REMARK    1  A    between atoms: C_2  and  C_3 
REMARK    2  A    between atoms: C_3  and  O_6 
REMARK    3  A    between atoms: C_3  and  C_4 
REMARK    4  A    between atoms: C_7  and  O_6 
REMARK    5  A    between atoms: C_9  and  C_10 
REMARK    6  A    between atoms: N_15  and  C_14 
REMARK    7  A    between atoms: N_20  and  C_19 
REMARK       I    between atoms: C_22  and  N_20 
ROOT
ATOM      1  C   LIG d   1      -5.050  92.622 120.103  0.00  0.00     0.161 C 
ATOM      2  C   LIG d   1      -4.019  91.797 119.624  0.00  0.00     0.016 C 
ATOM      3  C   LIG d   1      -4.107  91.061 118.420  0.00  0.00     0.038 C 
ATOM      4  C   LIG d   1      -5.180  91.219 117.531  0.00  0.00     0.028 C 
ATOM      5  C   LIG d   1      -6.472  91.655 118.214  0.00  0.00    -0.047 C 
ATOM      6  C   LIG d   1      -6.183  92.894 119.092  0.00  0.00     0.091 C 
ENDROOT
BRANCH   1   7
ATOM      7  O   LIG d   1      -4.498  93.864 120.583  0.00  0.00    -0.368 OA
BRANCH   7   8
ATOM      8  C   LIG d   1      -4.302  94.901 119.590  0.00  0.00     0.119 C 
BRANCH   8   9
ATOM      9  C   LIG d   1      -2.793  95.209 119.535  0.00  0.00     0.028 C 
ATOM     10  C   LIG d   1      -2.115  94.603 118.294  0.00  0.00     0.006 C 
ENDBRANCH   8   9
BRANCH   8  11
ATOM     11  C   LIG d   1      -4.968  96.213 120.014  0.00  0.00     0.028 C 
ATOM     12  C   LIG d   1      -5.590  96.138 121.418  0.00  0.00     0.006 C 
ENDBRANCH   8  11
ENDBRANCH   7   8
ENDBRANCH   1   7
BRANCH   6  13
ATOM     13  N   LIG d   1      -7.376  93.335 119.861  0.00  0.00    -0.311 N 
ATOM     14  C   LIG d   1      -8.203  94.293 119.446  0.00  0.00     0.210 C 
ATOM     15  C   LIG d   1      -9.360  94.607 120.400  0.00  0.00     0.109 C 
ATOM     16  O   LIG d   1      -8.107  94.890 118.363  0.00  0.00    -0.276 OA
ATOM     17  H   LIG d   1      -7.547  92.881 120.737  0.00  0.00     0.149 HD
ENDBRANCH   6  13
BRANCH   5  18
ATOM     18  N   LIG d   1      -7.469  91.915 117.157  0.00  0.00     0.381 N 
ATOM     19  H   LIG d   1      -8.287  92.327 117.558  0.00  0.00    -0.090 HD
ATOM     20  H   LIG d   1      -7.730  91.041 116.735  0.00  0.00    -0.090 HD
ATOM     21  H   LIG d   1      -7.084  92.524 116.469  0.00  0.00    -0.090 HD
ENDBRANCH   5  18
BRANCH   3  22
ATOM     22  C   LIG d   1      -3.131  90.124 118.115  0.00  0.00     0.382 C 
ATOM     23  O   LIG d   1      -3.355  88.903 118.297  0.00  0.00    -0.241 OA
ATOM     24  O   LIG d   1      -2.014  90.487 117.701  0.00  0.00    -0.241 OA
ENDBRANCH   3  22
TORSDOF 7
ENDMDL
