MODEL 1
REMARK VINA RESULT:      -4.7      0.000      0.000
REMARK  7 active torsions:
REMARK  status: ('A' for Active; 'I' for Inactive)
REMARK    1  A    between atoms: C_2  and  C_3 
REMARK    2  A    between atoms: C_3  and  O_6 
REMARK    3  A    between atoms: C_3  and  C_4 
REMARK    4  A    between atoms: C_7  and  O_6 
REMARK    5  A    between atoms: C_9  and  C_10 
REMARK    6  A    between atoms: N_15  and  C_14 
REMARK    7  A    between atoms: N_20  and  C_19 
REMARK       I    between atoms: C_22  and  N_20 
ROOT
ATOM      1  C   LIG d   1      -5.165  92.176 119.353  0.00  0.00     0.161 C 
ATOM      2  C   LIG d   1      -6.175  91.893 118.418  0.00  0.00     0.016 C 
ATOM      3  C   LIG d   1      -5.956  91.143 117.240  0.00  0.00     0.038 C 
ATOM      4  C   LIG d   1      -4.739  90.492 116.991  0.00  0.00     0.028 C 
ATOM      5  C   LIG d   1      -3.544  91.167 117.656  0.00  0.00    -0.047 C 
ATOM      6  C   LIG d   1      -3.858  91.380 119.154  0.00  0.00     0.091 C 
ENDROOT
BRANCH   1   7
ATOM      7  O   LIG d   1      -5.670  91.984 120.690  0.00  0.00    -0.368 OA
BRANCH   7   8
ATOM      8  C   LIG d   1      -5.825  93.181 121.491  0.00  0.00     0.119 C 
BRANCH   8   9
ATOM      9  C   LIG d   1      -7.335  93.411 121.691  0.00  0.00     0.028 C 
ATOM     10  C   LIG d   1      -7.911  94.431 120.694  0.00  0.00     0.006 C 
ENDBRANCH   8   9
BRANCH   8  11
ATOM     11  C   LIG d   1      -5.321  94.420 120.744  0.00  0.00     0.028 C 
ATOM     12  C   LIG d   1      -4.138  95.101 121.450  0.00  0.00     0.006 C 
ENDBRANCH   8  11
ENDBRANCH   7   8
ENDBRANCH   1   7
BRANCH   6  13
ATOM     13  N   LIG d   1      -2.775  92.111 119.862  0.00  0.00    -0.311 N 
ATOM     14  C   LIG d   1      -1.790  91.503 120.521  0.00  0.00     0.210 C 
ATOM     15  C   LIG d   1      -0.788  92.444 121.197  0.00  0.00     0.109 C 
ATOM     16  O   LIG d   1      -1.634  90.274 120.584  0.00  0.00    -0.276 OA
ATOM     17  H   LIG d   1      -2.807  93.111 119.836  0.00  0.00     0.149 HD
ENDBRANCH   6  13
BRANCH   5  18
ATOM     18  N   LIG d   1      -2.365  90.309 117.429  0.00  0.00     0.381 N 
ATOM     19  H   LIG d   1      -1.985  90.490 116.521  0.00  0.00    -0.090 HD
ATOM     20  H   LIG d   1      -2.651  89.347 117.465  0.00  0.00    -0.090 HD
ATOM     21  H   LIG d   1      -1.676  90.485 118.126  0.00  0.00    -0.090 HD
ENDBRANCH   5  18
BRANCH   3  22
ATOM     22  C   LIG d   1      -6.951  91.072 116.276  0.00  0.00     0.382 C 
ATOM     23  O   LIG d   1      -7.235  92.084 115.593  0.00  0.00    -0.241 OA
ATOM     24  O   LIG d   1      -7.597  90.020 116.113  0.00  0.00    -0.241 OA
ENDBRANCH   3  22
TORSDOF 7
ENDMDL
MODEL 2
REMARK VINA RESULT:      -4.6      2.164      4.416
REMARK  7 active torsions:
REMARK  status: ('A' for Active; 'I' for Inactive)
REMARK    1  A    between atoms: C_2  and  C_3 
REMARK    2  A    between atoms: C_3  and  O_6 
REMARK    3  A    between atoms: C_3  and  C_4 
REMARK    4  A    between atoms: C_7  and  O_6 
REMARK    5  A    between atoms: C_9  and  C_10 
REMARK    6  A    between atoms: N_15  and  C_14 
REMARK    7  A    between atoms: N_20  and  C_19 
REMARK       I    between atoms: C_22  and  N_20 
ROOT
ATOM      1  C   LIG d   1      -3.560  91.234 118.476  0.00  0.00     0.161 C 
ATOM      2  C   LIG d   1      -4.285  90.852 117.335  0.00  0.00     0.016 C 
ATOM      3  C   LIG d   1      -5.667  91.101 117.171  0.00  0.00     0.038 C 
ATOM      4  C   LIG d   1      -6.391  91.888 118.079  0.00  0.00     0.028 C 
ATOM      5  C   LIG d   1      -5.818  91.865 119.492  0.00  0.00    -0.047 C 
ATOM      6  C   LIG d   1      -4.308  92.191 119.427  0.00  0.00     0.091 C 
ENDROOT
BRANCH   1   7
ATOM      7  O   LIG d   1      -2.296  91.804 118.084  0.00  0.00    -0.368 OA
BRANCH   7   8
ATOM      8  C   LIG d   1      -1.113  91.066 118.479  0.00  0.00     0.119 C 
BRANCH   8   9
ATOM      9  C   LIG d   1      -0.287  91.977 119.407  0.00  0.00     0.028 C 
ATOM     10  C   LIG d   1      -0.584  93.469 119.182  0.00  0.00     0.006 C 
ENDBRANCH   8   9
BRANCH   8  11
ATOM     11  C   LIG d   1      -0.207  90.782 117.278  0.00  0.00     0.028 C 
ATOM     12  C   LIG d   1      -0.293  89.324 116.798  0.00  0.00     0.006 C 
ENDBRANCH   8  11
ENDBRANCH   7   8
ENDBRANCH   1   7
BRANCH   6  13
ATOM     13  N   LIG d   1      -3.652  92.107 120.758  0.00  0.00    -0.311 N 
ATOM     14  C   LIG d   1      -3.450  93.163 121.544  0.00  0.00     0.210 C 
ATOM     15  C   LIG d   1      -2.739  92.858 122.866  0.00  0.00     0.109 C 
ATOM     16  O   LIG d   1      -3.822  94.318 121.286  0.00  0.00    -0.276 OA
ATOM     17  H   LIG d   1      -3.348  91.202 121.060  0.00  0.00     0.149 HD
ENDBRANCH   6  13
BRANCH   5  18
ATOM     18  N   LIG d   1      -6.584  92.832 120.300  0.00  0.00     0.381 N 
ATOM     19  H   LIG d   1      -7.463  93.020 119.860  0.00  0.00    -0.090 HD
ATOM     20  H   LIG d   1      -6.068  93.693 120.353  0.00  0.00    -0.090 HD
ATOM     21  H   LIG d   1      -6.734  92.469 121.216  0.00  0.00    -0.090 HD
ENDBRANCH   5  18
BRANCH   3  22
ATOM     22  C   LIG d   1      -6.348  90.526 116.109  0.00  0.00     0.382 C 
ATOM     23  O   LIG d   1      -7.524  90.879 115.854  0.00  0.00    -0.241 OA
ATOM     24  O   LIG d   1      -5.816  89.627 115.431  0.00  0.00    -0.241 OA
ENDBRANCH   3  22
TORSDOF 7
ENDMDL
MODEL 3
REMARK VINA RESULT:      -4.5      1.838      4.881
REMARK  7 active torsions:
REMARK  status: ('A' for Active; 'I' for Inactive)
REMARK    1  A    between atoms: C_2  and  C_3 
REMARK    2  A    between atoms: C_3  and  O_6 
REMARK    3  A    between atoms: C_3  and  C_4 
REMARK    4  A    between atoms: C_7  and  O_6 
REMARK    5  A    between atoms: C_9  and  C_10 
REMARK    6  A    between atoms: N_15  and  C_14 
REMARK    7  A    between atoms: N_20  and  C_19 
REMARK       I    between atoms: C_22  and  N_20 
ROOT
ATOM      1  C   LIG d   1      -3.255  91.743 119.320  0.00  0.00     0.161 C 
ATOM      2  C   LIG d   1      -1.914  91.590 119.709  0.00  0.00     0.016 C 
ATOM      3  C   LIG d   1      -0.988  90.780 119.011  0.00  0.00     0.038 C 
ATOM      4  C   LIG d   1      -1.305  90.184 117.781  0.00  0.00     0.028 C 
ATOM      5  C   LIG d   1      -2.794  89.900 117.612  0.00  0.00    -0.047 C 
ATOM      6  C   LIG d   1      -3.589  91.189 117.919  0.00  0.00     0.091 C 
ENDROOT
BRANCH   1   7
ATOM      7  O   LIG d   1      -3.635  93.130 119.414  0.00  0.00    -0.368 OA
BRANCH   7   8
ATOM      8  C   LIG d   1      -4.216  93.547 120.674  0.00  0.00     0.119 C 
BRANCH   8   9
ATOM      9  C   LIG d   1      -5.605  92.890 120.784  0.00  0.00     0.028 C 
ATOM     10  C   LIG d   1      -6.637  93.539 119.845  0.00  0.00     0.006 C 
ENDBRANCH   8   9
BRANCH   8  11
ATOM     11  C   LIG d   1      -4.478  95.056 120.695  0.00  0.00     0.028 C 
ATOM     12  C   LIG d   1      -3.500  95.843 119.807  0.00  0.00     0.006 C 
ENDBRANCH   8  11
ENDBRANCH   7   8
ENDBRANCH   1   7
BRANCH   6  13
ATOM     13  N   LIG d   1      -5.059  90.977 117.858  0.00  0.00    -0.311 N 
ATOM     14  C   LIG d   1      -5.761  91.034 116.728  0.00  0.00     0.210 C 
ATOM     15  C   LIG d   1      -7.267  90.804 116.891  0.00  0.00     0.109 C 
ATOM     16  O   LIG d   1      -5.276  91.220 115.602  0.00  0.00    -0.276 OA
ATOM     17  H   LIG d   1      -5.528  90.789 118.722  0.00  0.00     0.149 HD
ENDBRANCH   6  13
BRANCH   5  18
ATOM     18  N   LIG d   1      -2.999  89.408 116.236  0.00  0.00     0.381 N 
ATOM     19  H   LIG d   1      -3.661  88.658 116.240  0.00  0.00    -0.090 HD
ATOM     20  H   LIG d   1      -2.127  89.056 115.883  0.00  0.00    -0.090 HD
ATOM     21  H   LIG d   1      -3.328  90.147 115.655  0.00  0.00    -0.090 HD
ENDBRANCH   5  18
BRANCH   3  22
ATOM     22  C   LIG d   1       0.258  90.527 119.564  0.00  0.00     0.382 C 
ATOM     23  O   LIG d   1       0.410  89.566 120.355  0.00  0.00    -0.241 OA
ATOM     24  O   LIG d   1       1.222  91.276 119.316  0.00  0.00    -0.241 OA
ENDBRANCH   3  22
TORSDOF 7
ENDMDL
MODEL 4
REMARK VINA RESULT:      -4.5      2.539      4.508
REMARK  7 active torsions:
REMARK  status: ('A' for Active; 'I' for Inactive)
REMARK    1  A    between atoms: C_2  and  C_3 
REMARK    2  A    between atoms: C_3  and  O_6 
REMARK    3  A    between atoms: C_3  and  C_4 
REMARK    4  A    between atoms: C_7  and  O_6 
REMARK    5  A    between atoms: C_9  and  C_10 
REMARK    6  A    between atoms: N_15  and  C_14 
REMARK    7  A    between atoms: N_20  and  C_19 
REMARK       I    between atoms: C_22  and  N_20 
ROOT
ATOM      1  C   LIG d   1      -4.450  92.060 120.182  0.00  0.00     0.161 C 
ATOM      2  C   LIG d   1      -3.588  91.305 119.370  0.00  0.00     0.016 C 
ATOM      3  C   LIG d   1      -3.940  90.843 118.080  0.00  0.00     0.038 C 
ATOM      4  C   LIG d   1      -5.130  91.236 117.451  0.00  0.00     0.028 C 
ATOM      5  C   LIG d   1      -6.248  91.581 118.430  0.00  0.00    -0.047 C 
ATOM      6  C   LIG d   1      -5.710  92.593 119.468  0.00  0.00     0.091 C 
ENDROOT
BRANCH   1   7
ATOM      7  O   LIG d   1      -3.722  93.145 120.790  0.00  0.00    -0.368 OA
BRANCH   7   8
ATOM      8  C   LIG d   1      -3.482  94.301 119.950  0.00  0.00     0.119 C 
BRANCH   8   9
ATOM      9  C   LIG d   1      -1.956  94.505 119.870  0.00  0.00     0.028 C 
ATOM     10  C   LIG d   1      -1.426  94.400 118.430  0.00  0.00     0.006 C 
ENDBRANCH   8   9
BRANCH   8  11
ATOM     11  C   LIG d   1      -4.029  95.580 120.592  0.00  0.00     0.028 C 
ATOM     12  C   LIG d   1      -4.500  96.612 119.555  0.00  0.00     0.006 C 
ENDBRANCH   8  11
ENDBRANCH   7   8
ENDBRANCH   1   7
BRANCH   6  13
ATOM     13  N   LIG d   1      -6.715  92.920 120.514  0.00  0.00    -0.311 N 
ATOM     14  C   LIG d   1      -7.513  93.985 120.456  0.00  0.00     0.210 C 
ATOM     15  C   LIG d   1      -8.462  94.147 121.647  0.00  0.00     0.109 C 
ATOM     16  O   LIG d   1      -7.547  94.793 119.516  0.00  0.00    -0.276 OA
ATOM     17  H   LIG d   1      -6.776  92.299 121.297  0.00  0.00     0.149 HD
ENDBRANCH   6  13
BRANCH   5  18
ATOM     18  N   LIG d   1      -7.381  92.105 117.645  0.00  0.00     0.381 N 
ATOM     19  H   LIG d   1      -7.997  92.620 118.243  0.00  0.00    -0.090 HD
ATOM     20  H   LIG d   1      -7.892  91.333 117.256  0.00  0.00    -0.090 HD
ATOM     21  H   LIG d   1      -7.047  92.694 116.914  0.00  0.00    -0.090 HD
ENDBRANCH   5  18
BRANCH   3  22
ATOM     22  C   LIG d   1      -3.113  89.945 117.423  0.00  0.00     0.382 C 
ATOM     23  O   LIG d   1      -1.883  89.930 117.669  0.00  0.00    -0.241 OA
ATOM     24  O   LIG d   1      -3.574  89.180 116.555  0.00  0.00    -0.241 OA
ENDBRANCH   3  22
TORSDOF 7
ENDMDL
MODEL 5
REMARK VINA RESULT:      -4.3      2.371      4.640
REMARK  7 active torsions:
REMARK  status: ('A' for Active; 'I' for Inactive)
REMARK    1  A    between atoms: C_2  and  C_3 
REMARK    2  A    between atoms: C_3  and  O_6 
REMARK    3  A    between atoms: C_3  and  C_4 
REMARK    4  A    between atoms: C_7  and  O_6 
REMARK    5  A    between atoms: C_9  and  C_10 
REMARK    6  A    between atoms: N_15  and  C_14 
REMARK    7  A    between atoms: N_20  and  C_19 
REMARK       I    between atoms: C_22  and  N_20 
ROOT
ATOM      1  C   LIG d   1      -5.275  92.675 119.967  0.00  0.00     0.161 C 
ATOM      2  C   LIG d   1      -6.490  92.882 119.292  0.00  0.00     0.016 C 
ATOM      3  C   LIG d   1      -7.309  94.017 119.495  0.00  0.00     0.038 C 
ATOM      4  C   LIG d   1      -6.891  95.101 120.281  0.00  0.00     0.028 C 
ATOM      5  C   LIG d   1      -5.904  94.712 121.375  0.00  0.00    -0.047 C 
ATOM      6  C   LIG d   1      -4.750  93.899 120.744  0.00  0.00     0.091 C 
ENDROOT
BRANCH   1   7
ATOM      7  O   LIG d   1      -4.276  92.203 119.041  0.00  0.00    -0.368 OA
BRANCH   7   8
ATOM      8  C   LIG d   1      -4.474  90.867 118.516  0.00  0.00     0.119 C 
BRANCH   8   9
ATOM      9  C   LIG d   1      -3.208  90.050 118.842  0.00  0.00     0.028 C 
ATOM     10  C   LIG d   1      -2.733  90.257 120.290  0.00  0.00     0.006 C 
ENDBRANCH   8   9
BRANCH   8  11
ATOM     11  C   LIG d   1      -4.568  90.877 116.988  0.00  0.00     0.028 C 
ATOM     12  C   LIG d   1      -6.019  90.894 116.480  0.00  0.00     0.006 C 
ENDBRANCH   8  11
ENDBRANCH   7   8
ENDBRANCH   1   7
BRANCH   6  13
ATOM     13  N   LIG d   1      -3.782  93.407 121.759  0.00  0.00    -0.311 N 
ATOM     14  C   LIG d   1      -2.477  93.666 121.714  0.00  0.00     0.210 C 
ATOM     15  C   LIG d   1      -1.654  93.045 122.848  0.00  0.00     0.109 C 
ATOM     16  O   LIG d   1      -1.926  94.378 120.860  0.00  0.00    -0.276 OA
ATOM     17  H   LIG d   1      -4.148  92.847 122.505  0.00  0.00     0.149 HD
ENDBRANCH   6  13
BRANCH   5  18
ATOM     18  N   LIG d   1      -5.448  95.954 122.027  0.00  0.00     0.381 N 
ATOM     19  H   LIG d   1      -4.731  96.382 121.475  0.00  0.00    -0.090 HD
ATOM     20  H   LIG d   1      -5.060  95.727 122.925  0.00  0.00    -0.090 HD
ATOM     21  H   LIG d   1      -6.213  96.582 122.136  0.00  0.00    -0.090 HD
ENDBRANCH   5  18
BRANCH   3  22
ATOM     22  C   LIG d   1      -8.578  94.056 118.939  0.00  0.00     0.382 C 
ATOM     23  O   LIG d   1      -9.568  94.341 119.656  0.00  0.00    -0.241 OA
ATOM     24  O   LIG d   1      -8.753  93.766 117.741  0.00  0.00    -0.241 OA
ENDBRANCH   3  22
TORSDOF 7
ENDMDL
MODEL 6
REMARK VINA RESULT:      -4.2      4.402      7.159
REMARK  7 active torsions:
REMARK  status: ('A' for Active; 'I' for Inactive)
REMARK    1  A    between atoms: C_2  and  C_3 
REMARK    2  A    between atoms: C_3  and  O_6 
REMARK    3  A    between atoms: C_3  and  C_4 
REMARK    4  A    between atoms: C_7  and  O_6 
REMARK    5  A    between atoms: C_9  and  C_10 
REMARK    6  A    between atoms: N_15  and  C_14 
REMARK    7  A    between atoms: N_20  and  C_19 
REMARK       I    between atoms: C_22  and  N_20 
ROOT
ATOM      1  C   LIG d   1       0.306  90.566 118.558  0.00  0.00     0.161 C 
ATOM      2  C   LIG d   1      -1.057  90.244 118.445  0.00  0.00     0.016 C 
ATOM      3  C   LIG d   1      -2.082  91.215 118.368  0.00  0.00     0.038 C 
ATOM      4  C   LIG d   1      -1.799  92.584 118.247  0.00  0.00     0.028 C 
ATOM      5  C   LIG d   1      -0.463  92.983 118.864  0.00  0.00    -0.047 C 
ATOM      6  C   LIG d   1       0.642  92.052 118.315  0.00  0.00     0.091 C 
ENDROOT
BRANCH   1   7
ATOM      7  O   LIG d   1       1.080  89.727 117.679  0.00  0.00    -0.368 OA
BRANCH   7   8
ATOM      8  C   LIG d   1       1.610  88.510 118.261  0.00  0.00     0.119 C 
BRANCH   8   9
ATOM      9  C   LIG d   1       3.098  88.756 118.574  0.00  0.00     0.028 C 
ATOM     10  C   LIG d   1       3.934  88.989 117.304  0.00  0.00     0.006 C 
ENDBRANCH   8   9
BRANCH   8  11
ATOM     11  C   LIG d   1       1.592  87.357 117.254  0.00  0.00     0.028 C 
ATOM     12  C   LIG d   1       0.594  87.582 116.108  0.00  0.00     0.006 C 
ENDBRANCH   8  11
ENDBRANCH   7   8
ENDBRANCH   1   7
BRANCH   6  13
ATOM     13  N   LIG d   1       1.967  92.320 118.932  0.00  0.00    -0.311 N 
ATOM     14  C   LIG d   1       3.085  92.478 118.226  0.00  0.00     0.210 C 
ATOM     15  C   LIG d   1       4.346  92.727 119.060  0.00  0.00     0.109 C 
ATOM     16  O   LIG d   1       3.148  92.468 116.987  0.00  0.00    -0.276 OA
ATOM     17  H   LIG d   1       2.002  92.376 119.931  0.00  0.00     0.149 HD
ENDBRANCH   6  13
BRANCH   5  18
ATOM     18  N   LIG d   1      -0.233  94.405 118.545  0.00  0.00     0.381 N 
ATOM     19  H   LIG d   1       0.115  94.490 117.610  0.00  0.00    -0.090 HD
ATOM     20  H   LIG d   1       0.460  94.771 119.174  0.00  0.00    -0.090 HD
ATOM     21  H   LIG d   1      -1.081  94.918 118.639  0.00  0.00    -0.090 HD
ENDBRANCH   5  18
BRANCH   3  22
ATOM     22  C   LIG d   1      -3.409  90.822 118.453  0.00  0.00     0.382 C 
ATOM     23  O   LIG d   1      -3.750  89.678 118.067  0.00  0.00    -0.241 OA
ATOM     24  O   LIG d   1      -4.277  91.612 118.870  0.00  0.00    -0.241 OA
ENDBRANCH   3  22
TORSDOF 7
ENDMDL
MODEL 7
REMARK VINA RESULT:      -4.1      2.983      6.594
REMARK  7 active torsions:
REMARK  status: ('A' for Active; 'I' for Inactive)
REMARK    1  A    between atoms: C_2  and  C_3 
REMARK    2  A    between atoms: C_3  and  O_6 
REMARK    3  A    between atoms: C_3  and  C_4 
REMARK    4  A    between atoms: C_7  and  O_6 
REMARK    5  A    between atoms: C_9  and  C_10 
REMARK    6  A    between atoms: N_15  and  C_14 
REMARK    7  A    between atoms: N_20  and  C_19 
REMARK       I    between atoms: C_22  and  N_20 
ROOT
ATOM      1  C   LIG d   1      -1.600  93.145 118.492  0.00  0.00     0.161 C 
ATOM      2  C   LIG d   1      -1.189  94.061 119.476  0.00  0.00     0.016 C 
ATOM      3  C   LIG d   1      -1.940  94.339 120.642  0.00  0.00     0.038 C 
ATOM      4  C   LIG d   1      -3.085  93.603 120.979  0.00  0.00     0.028 C 
ATOM      5  C   LIG d   1      -3.810  93.022 119.769  0.00  0.00    -0.047 C 
ATOM      6  C   LIG d   1      -2.791  92.252 118.897  0.00  0.00     0.091 C 
ENDROOT
BRANCH   1   7
ATOM      7  O   LIG d   1      -0.481  92.333 118.084  0.00  0.00    -0.368 OA
BRANCH   7   8
ATOM      8  C   LIG d   1      -0.062  91.308 119.018  0.00  0.00     0.119 C 
BRANCH   8   9
ATOM      9  C   LIG d   1       1.351  91.677 119.507  0.00  0.00     0.028 C 
ATOM     10  C   LIG d   1       2.118  92.540 118.490  0.00  0.00     0.006 C 
ENDBRANCH   8   9
BRANCH   8  11
ATOM     11  C   LIG d   1       0.090  89.951 118.325  0.00  0.00     0.028 C 
ATOM     12  C   LIG d   1      -0.182  90.020 116.814  0.00  0.00     0.006 C 
ENDBRANCH   8  11
ENDBRANCH   7   8
ENDBRANCH   1   7
BRANCH   6  13
ATOM     13  N   LIG d   1      -3.400  91.722 117.649  0.00  0.00    -0.311 N 
ATOM     14  C   LIG d   1      -3.846  90.474 117.524  0.00  0.00     0.210 C 
ATOM     15  C   LIG d   1      -4.419  90.127 116.146  0.00  0.00     0.109 C 
ATOM     16  O   LIG d   1      -3.852  89.630 118.433  0.00  0.00    -0.276 OA
ATOM     17  H   LIG d   1      -3.464  92.349 116.871  0.00  0.00     0.149 HD
ENDBRANCH   6  13
BRANCH   5  18
ATOM     18  N   LIG d   1      -4.902  92.167 120.272  0.00  0.00     0.381 N 
ATOM     19  H   LIG d   1      -5.145  91.486 119.581  0.00  0.00    -0.090 HD
ATOM     20  H   LIG d   1      -5.708  92.740 120.448  0.00  0.00    -0.090 HD
ATOM     21  H   LIG d   1      -4.620  91.712 121.112  0.00  0.00    -0.090 HD
ENDBRANCH   5  18
BRANCH   3  22
ATOM     22  C   LIG d   1      -1.566  95.390 121.465  0.00  0.00     0.382 C 
ATOM     23  O   LIG d   1      -0.357  95.708 121.566  0.00  0.00    -0.241 OA
ATOM     24  O   LIG d   1      -2.418  95.996 122.141  0.00  0.00    -0.241 OA
ENDBRANCH   3  22
TORSDOF 7
ENDMDL
MODEL 8
REMARK VINA RESULT:      -4.0      2.490      4.424
REMARK  7 active torsions:
REMARK  status: ('A' for Active; 'I' for Inactive)
REMARK    1  A    between atoms: C_2  and  C_3 
REMARK    2  A    between atoms: C_3  and  O_6 
REMARK    3  A    between atoms: C_3  and  C_4 
REMARK    4  A    between atoms: C_7  and  O_6 
REMARK    5  A    between atoms: C_9  and  C_10 
REMARK    6  A    between atoms: N_15  and  C_14 
REMARK    7  A    between atoms: N_20  and  C_19 
REMARK       I    between atoms: C_22  and  N_20 
ROOT
ATOM      1  C   LIG d   1      -5.716  93.031 120.504  0.00  0.00     0.161 C 
ATOM      2  C   LIG d   1      -6.871  93.344 119.769  0.00  0.00     0.016 C 
ATOM      3  C   LIG d   1      -7.154  94.639 119.278  0.00  0.00     0.038 C 
ATOM      4  C   LIG d   1      -6.220  95.683 119.359  0.00  0.00     0.028 C 
ATOM      5  C   LIG d   1      -5.257  95.545 120.533  0.00  0.00    -0.047 C 
ATOM      6  C   LIG d   1      -4.633  94.131 120.507  0.00  0.00     0.091 C 
ENDROOT
BRANCH   1   7
ATOM      7  O   LIG d   1      -5.162  91.785 120.037  0.00  0.00    -0.368 OA
BRANCH   7   8
ATOM      8  C   LIG d   1      -4.353  91.856 118.838  0.00  0.00     0.119 C 
BRANCH   8   9
ATOM      9  C   LIG d   1      -5.048  91.004 117.758  0.00  0.00     0.028 C 
ATOM     10  C   LIG d   1      -4.044  90.275 116.849  0.00  0.00     0.006 C 
ENDBRANCH   8   9
BRANCH   8  11
ATOM     11  C   LIG d   1      -2.984  91.203 119.050  0.00  0.00     0.028 C 
ATOM     12  C   LIG d   1      -2.868  90.490 120.406  0.00  0.00     0.006 C 
ENDBRANCH   8  11
ENDBRANCH   7   8
ENDBRANCH   1   7
BRANCH   6  13
ATOM     13  N   LIG d   1      -3.742  93.882 121.670  0.00  0.00    -0.311 N 
ATOM     14  C   LIG d   1      -2.418  94.009 121.619  0.00  0.00     0.210 C 
ATOM     15  C   LIG d   1      -1.686  93.686 122.926  0.00  0.00     0.109 C 
ATOM     16  O   LIG d   1      -1.781  94.389 120.625  0.00  0.00    -0.276 OA
ATOM     17  H   LIG d   1      -4.178  93.600 122.526  0.00  0.00     0.149 HD
ENDBRANCH   6  13
BRANCH   5  18
ATOM     18  N   LIG d   1      -4.256  96.621 120.418  0.00  0.00     0.381 N 
ATOM     19  H   LIG d   1      -3.836  96.791 121.310  0.00  0.00    -0.090 HD
ATOM     20  H   LIG d   1      -4.716  97.463 120.120  0.00  0.00    -0.090 HD
ATOM     21  H   LIG d   1      -3.555  96.366 119.757  0.00  0.00    -0.090 HD
ENDBRANCH   5  18
BRANCH   3  22
ATOM     22  C   LIG d   1      -8.399  94.911 118.732  0.00  0.00     0.382 C 
ATOM     23  O   LIG d   1      -8.833  96.088 118.715  0.00  0.00    -0.241 OA
ATOM     24  O   LIG d   1      -9.113  93.987 118.297  0.00  0.00    -0.241 OA
ENDBRANCH   3  22
TORSDOF 7
ENDMDL
MODEL 9
REMARK VINA RESULT:      -4.0      1.638      2.188
REMARK  7 active torsions:
REMARK  status: ('A' for Active; 'I' for Inactive)
REMARK    1  A    between atoms: C_2  and  C_3 
REMARK    2  A    between atoms: C_3  and  O_6 
REMARK    3  A    between atoms: C_3  and  C_4 
REMARK    4  A    between atoms: C_7  and  O_6 
REMARK    5  A    between atoms: C_9  and  C_10 
REMARK    6  A    between atoms: N_15  and  C_14 
REMARK    7  A    between atoms: N_20  and  C_19 
REMARK       I    between atoms: C_22  and  N_20 
ROOT
ATOM      1  C   LIG d   1      -6.035  93.021 119.656  0.00  0.00     0.161 C 
ATOM      2  C   LIG d   1      -6.788  92.467 118.607  0.00  0.00     0.016 C 
ATOM      3  C   LIG d   1      -6.297  91.458 117.746  0.00  0.00     0.038 C 
ATOM      4  C   LIG d   1      -5.066  90.824 117.972  0.00  0.00     0.028 C 
ATOM      5  C   LIG d   1      -4.062  91.700 118.714  0.00  0.00    -0.047 C 
ATOM      6  C   LIG d   1      -4.732  92.265 119.987  0.00  0.00     0.091 C 
ENDROOT
BRANCH   1   7
ATOM      7  O   LIG d   1      -6.856  93.145 120.834  0.00  0.00    -0.368 OA
BRANCH   7   8
ATOM      8  C   LIG d   1      -7.986  94.045 120.732  0.00  0.00     0.119 C 
BRANCH   8   9
ATOM      9  C   LIG d   1      -7.428  95.476 120.601  0.00  0.00     0.028 C 
ATOM     10  C   LIG d   1      -7.984  96.212 119.371  0.00  0.00     0.006 C 
ENDBRANCH   8   9
BRANCH   8  11
ATOM     11  C   LIG d   1      -8.814  94.049 122.021  0.00  0.00     0.028 C 
ATOM     12  C   LIG d   1      -8.575  95.301 122.879  0.00  0.00     0.006 C 
ENDBRANCH   8  11
ENDBRANCH   7   8
ENDBRANCH   1   7
BRANCH   6  13
ATOM     13  N   LIG d   1      -3.844  93.200 120.727  0.00  0.00    -0.311 N 
ATOM     14  C   LIG d   1      -3.450  92.996 121.983  0.00  0.00     0.210 C 
ATOM     15  C   LIG d   1      -2.553  94.094 122.564  0.00  0.00     0.109 C 
ATOM     16  O   LIG d   1      -3.731  91.996 122.659  0.00  0.00    -0.276 OA
ATOM     17  H   LIG d   1      -3.543  94.023 120.242  0.00  0.00     0.149 HD
ENDBRANCH   6  13
BRANCH   5  18
ATOM     18  N   LIG d   1      -2.877  90.870 119.003  0.00  0.00     0.381 N 
ATOM     19  H   LIG d   1      -2.298  90.811 118.190  0.00  0.00    -0.090 HD
ATOM     20  H   LIG d   1      -3.180  89.943 119.244  0.00  0.00    -0.090 HD
ATOM     21  H   LIG d   1      -2.360  91.265 119.759  0.00  0.00    -0.090 HD
ENDBRANCH   5  18
BRANCH   3  22
ATOM     22  C   LIG d   1      -7.025  91.101 116.621  0.00  0.00     0.382 C 
ATOM     23  O   LIG d   1      -7.201  91.933 115.698  0.00  0.00    -0.241 OA
ATOM     24  O   LIG d   1      -7.546  89.973 116.537  0.00  0.00    -0.241 OA
ENDBRANCH   3  22
TORSDOF 7
ENDMDL
