MODEL 1
REMARK VINA RESULT:      -5.3      0.000      0.000
REMARK  7 active torsions:
REMARK  status: ('A' for Active; 'I' for Inactive)
REMARK    1  A    between atoms: C_2  and  C_3 
REMARK    2  A    between atoms: C_3  and  O_6 
REMARK    3  A    between atoms: C_3  and  C_4 
REMARK    4  A    between atoms: C_7  and  O_6 
REMARK    5  A    between atoms: C_9  and  C_10 
REMARK    6  A    between atoms: N_15  and  C_14 
REMARK    7  A    between atoms: N_20  and  C_19 
REMARK       I    between atoms: C_22  and  N_20 
ROOT
ATOM      1  C   LIG d   1      -6.446  93.718 117.618  0.00  0.00     0.161 C 
ATOM      2  C   LIG d   1      -6.940  92.558 116.998  0.00  0.00     0.016 C 
ATOM      3  C   LIG d   1      -6.147  91.417 116.737  0.00  0.00     0.038 C 
ATOM      4  C   LIG d   1      -4.834  91.301 117.218  0.00  0.00     0.028 C 
ATOM      5  C   LIG d   1      -4.137  92.644 117.407  0.00  0.00    -0.047 C 
ATOM      6  C   LIG d   1      -5.046  93.567 118.250  0.00  0.00     0.091 C 
ENDROOT
BRANCH   1   7
ATOM      7  O   LIG d   1      -7.391  94.187 118.601  0.00  0.00    -0.368 OA
BRANCH   7   8
ATOM      8  C   LIG d   1      -8.460  95.029 118.105  0.00  0.00     0.119 C 
BRANCH   8   9
ATOM      9  C   LIG d   1      -7.822  96.339 117.602  0.00  0.00     0.028 C 
ATOM     10  C   LIG d   1      -7.325  97.230 118.753  0.00  0.00     0.006 C 
ENDBRANCH   8   9
BRANCH   8  11
ATOM     11  C   LIG d   1      -9.409  95.447 119.232  0.00  0.00     0.028 C 
ATOM     12  C   LIG d   1      -9.822  94.270 120.130  0.00  0.00     0.006 C 
ENDBRANCH   8  11
ENDBRANCH   7   8
ENDBRANCH   1   7
BRANCH   6  13
ATOM     13  N   LIG d   1      -4.476  94.930 118.410  0.00  0.00    -0.311 N 
ATOM     14  C   LIG d   1      -4.114  95.440 119.587  0.00  0.00     0.210 C 
ATOM     15  C   LIG d   1      -3.569  96.870 119.532  0.00  0.00     0.109 C 
ATOM     16  O   LIG d   1      -4.164  94.831 120.666  0.00  0.00    -0.276 OA
ATOM     17  H   LIG d   1      -4.372  95.482 117.581  0.00  0.00     0.149 HD
ENDBRANCH   6  13
BRANCH   5  18
ATOM     18  N   LIG d   1      -2.831  92.383 118.041  0.00  0.00     0.381 N 
ATOM     19  H   LIG d   1      -2.096  92.731 117.458  0.00  0.00    -0.090 HD
ATOM     20  H   LIG d   1      -2.710  91.391 118.141  0.00  0.00    -0.090 HD
ATOM     21  H   LIG d   1      -2.792  92.822 118.934  0.00  0.00    -0.090 HD
ENDBRANCH   5  18
BRANCH   3  22
ATOM     22  C   LIG d   1      -6.653  90.392 115.952  0.00  0.00     0.382 C 
ATOM     23  O   LIG d   1      -7.893  90.273 115.801  0.00  0.00    -0.241 OA
ATOM     24  O   LIG d   1      -5.889  89.559 115.430  0.00  0.00    -0.241 OA
ENDBRANCH   3  22
TORSDOF 7
ENDMDL
MODEL 2
REMARK VINA RESULT:      -5.1      2.199      4.536
REMARK  7 active torsions:
REMARK  status: ('A' for Active; 'I' for Inactive)
REMARK    1  A    between atoms: C_2  and  C_3 
REMARK    2  A    between atoms: C_3  and  O_6 
REMARK    3  A    between atoms: C_3  and  C_4 
REMARK    4  A    between atoms: C_7  and  O_6 
REMARK    5  A    between atoms: C_9  and  C_10 
REMARK    6  A    between atoms: N_15  and  C_14 
REMARK    7  A    between atoms: N_20  and  C_19 
REMARK       I    between atoms: C_22  and  N_20 
ROOT
ATOM      1  C   LIG d   1      -4.924  92.411 118.425  0.00  0.00     0.161 C 
ATOM      2  C   LIG d   1      -5.272  91.403 117.511  0.00  0.00     0.016 C 
ATOM      3  C   LIG d   1      -6.225  91.581 116.482  0.00  0.00     0.038 C 
ATOM      4  C   LIG d   1      -6.789  92.834 116.202  0.00  0.00     0.028 C 
ATOM      5  C   LIG d   1      -6.847  93.757 117.414  0.00  0.00    -0.047 C 
ATOM      6  C   LIG d   1      -5.446  93.818 118.066  0.00  0.00     0.091 C 
ENDROOT
BRANCH   1   7
ATOM      7  O   LIG d   1      -3.494  92.438 118.603  0.00  0.00    -0.368 OA
BRANCH   7   8
ATOM      8  C   LIG d   1      -2.888  91.211 119.080  0.00  0.00     0.119 C 
BRANCH   8   9
ATOM      9  C   LIG d   1      -2.078  91.556 120.344  0.00  0.00     0.028 C 
ATOM     10  C   LIG d   1      -2.295  93.008 120.802  0.00  0.00     0.006 C 
ENDBRANCH   8   9
BRANCH   8  11
ATOM     11  C   LIG d   1      -1.864  90.669 118.078  0.00  0.00     0.028 C 
ATOM     12  C   LIG d   1      -2.148  89.216 117.663  0.00  0.00     0.006 C 
ENDBRANCH   8  11
ENDBRANCH   7   8
ENDBRANCH   1   7
BRANCH   6  13
ATOM     13  N   LIG d   1      -5.434  94.633 119.309  0.00  0.00    -0.311 N 
ATOM     14  C   LIG d   1      -4.513  95.558 119.570  0.00  0.00     0.210 C 
ATOM     15  C   LIG d   1      -4.674  96.269 120.917  0.00  0.00     0.109 C 
ATOM     16  O   LIG d   1      -3.596  95.880 118.800  0.00  0.00    -0.276 OA
ATOM     17  H   LIG d   1      -6.161  94.458 119.976  0.00  0.00     0.149 HD
ENDBRANCH   6  13
BRANCH   5  18
ATOM     18  N   LIG d   1      -7.327  95.073 116.951  0.00  0.00     0.381 N 
ATOM     19  H   LIG d   1      -8.327  95.085 116.943  0.00  0.00    -0.090 HD
ATOM     20  H   LIG d   1      -7.002  95.225 116.013  0.00  0.00    -0.090 HD
ATOM     21  H   LIG d   1      -6.983  95.791 117.550  0.00  0.00    -0.090 HD
ENDBRANCH   5  18
BRANCH   3  22
ATOM     22  C   LIG d   1      -6.654  90.487 115.745  0.00  0.00     0.382 C 
ATOM     23  O   LIG d   1      -7.863  90.378 115.430  0.00  0.00    -0.241 OA
ATOM     24  O   LIG d   1      -5.854  89.585 115.430  0.00  0.00    -0.241 OA
ENDBRANCH   3  22
TORSDOF 7
ENDMDL
MODEL 3
REMARK VINA RESULT:      -4.8      2.711      5.465
REMARK  7 active torsions:
REMARK  status: ('A' for Active; 'I' for Inactive)
REMARK    1  A    between atoms: C_2  and  C_3 
REMARK    2  A    between atoms: C_3  and  O_6 
REMARK    3  A    between atoms: C_3  and  C_4 
REMARK    4  A    between atoms: C_7  and  O_6 
REMARK    5  A    between atoms: C_9  and  C_10 
REMARK    6  A    between atoms: N_15  and  C_14 
REMARK    7  A    between atoms: N_20  and  C_19 
REMARK       I    between atoms: C_22  and  N_20 
ROOT
ATOM      1  C   LIG d   1      -4.283  92.234 118.659  0.00  0.00     0.161 C 
ATOM      2  C   LIG d   1      -5.500  92.929 118.751  0.00  0.00     0.016 C 
ATOM      3  C   LIG d   1      -6.588  92.713 117.874  0.00  0.00     0.038 C 
ATOM      4  C   LIG d   1      -6.586  91.673 116.933  0.00  0.00     0.028 C 
ATOM      5  C   LIG d   1      -5.188  91.277 116.469  0.00  0.00    -0.047 C 
ATOM      6  C   LIG d   1      -4.303  91.017 117.710  0.00  0.00     0.091 C 
ENDROOT
BRANCH   1   7
ATOM      7  O   LIG d   1      -3.848  91.835 119.974  0.00  0.00    -0.368 OA
BRANCH   7   8
ATOM      8  C   LIG d   1      -2.734  92.578 120.529  0.00  0.00     0.119 C 
BRANCH   8   9
ATOM      9  C   LIG d   1      -2.369  93.686 119.522  0.00  0.00     0.028 C 
ATOM     10  C   LIG d   1      -2.562  95.096 120.105  0.00  0.00     0.006 C 
ENDBRANCH   8   9
BRANCH   8  11
ATOM     11  C   LIG d   1      -1.482  91.703 120.641  0.00  0.00     0.028 C 
ATOM     12  C   LIG d   1      -0.357  92.149 119.693  0.00  0.00     0.006 C 
ENDBRANCH   8  11
ENDBRANCH   7   8
ENDBRANCH   1   7
BRANCH   6  13
ATOM     13  N   LIG d   1      -2.896  90.707 117.347  0.00  0.00    -0.311 N 
ATOM     14  C   LIG d   1      -2.293  89.562 117.662  0.00  0.00     0.210 C 
ATOM     15  C   LIG d   1      -0.834  89.453 117.210  0.00  0.00     0.109 C 
ATOM     16  O   LIG d   1      -2.839  88.612 118.245  0.00  0.00    -0.276 OA
ATOM     17  H   LIG d   1      -2.389  91.409 116.845  0.00  0.00     0.149 HD
ENDBRANCH   6  13
BRANCH   5  18
ATOM     18  N   LIG d   1      -5.325  90.094 115.599  0.00  0.00     0.381 N 
ATOM     19  H   LIG d   1      -5.232  89.260 116.143  0.00  0.00    -0.090 HD
ATOM     20  H   LIG d   1      -4.590  90.107 114.914  0.00  0.00    -0.090 HD
ATOM     21  H   LIG d   1      -6.212  90.106 115.145  0.00  0.00    -0.090 HD
ENDBRANCH   5  18
BRANCH   3  22
ATOM     22  C   LIG d   1      -7.678  93.570 117.906  0.00  0.00     0.382 C 
ATOM     23  O   LIG d   1      -8.507  93.494 118.845  0.00  0.00    -0.241 OA
ATOM     24  O   LIG d   1      -7.867  94.387 116.986  0.00  0.00    -0.241 OA
ENDBRANCH   3  22
TORSDOF 7
ENDMDL
MODEL 4
REMARK VINA RESULT:      -4.7      3.519      6.309
REMARK  7 active torsions:
REMARK  status: ('A' for Active; 'I' for Inactive)
REMARK    1  A    between atoms: C_2  and  C_3 
REMARK    2  A    between atoms: C_3  and  O_6 
REMARK    3  A    between atoms: C_3  and  C_4 
REMARK    4  A    between atoms: C_7  and  O_6 
REMARK    5  A    between atoms: C_9  and  C_10 
REMARK    6  A    between atoms: N_15  and  C_14 
REMARK    7  A    between atoms: N_20  and  C_19 
REMARK       I    between atoms: C_22  and  N_20 
ROOT
ATOM      1  C   LIG d   1      -2.933  90.885 118.371  0.00  0.00     0.161 C 
ATOM      2  C   LIG d   1      -4.093  90.756 117.589  0.00  0.00     0.016 C 
ATOM      3  C   LIG d   1      -5.013  91.810 117.382  0.00  0.00     0.038 C 
ATOM      4  C   LIG d   1      -4.755  93.116 117.824  0.00  0.00     0.028 C 
ATOM      5  C   LIG d   1      -3.844  93.174 119.046  0.00  0.00    -0.047 C 
ATOM      6  C   LIG d   1      -2.578  92.333 118.768  0.00  0.00     0.091 C 
ENDROOT
BRANCH   1   7
ATOM      7  O   LIG d   1      -1.819  90.262 117.699  0.00  0.00    -0.368 OA
BRANCH   7   8
ATOM      8  C   LIG d   1      -1.686  88.831 117.879  0.00  0.00     0.119 C 
BRANCH   8   9
ATOM      9  C   LIG d   1      -1.468  88.572 119.382  0.00  0.00     0.028 C 
ATOM     10  C   LIG d   1      -2.100  87.249 119.847  0.00  0.00     0.006 C 
ENDBRANCH   8   9
BRANCH   8  11
ATOM     11  C   LIG d   1      -0.427  88.298 117.189  0.00  0.00     0.028 C 
ATOM     12  C   LIG d   1       0.774  89.247 117.323  0.00  0.00     0.006 C 
ENDBRANCH   8  11
ENDBRANCH   7   8
ENDBRANCH   1   7
BRANCH   6  13
ATOM     13  N   LIG d   1      -1.672  92.267 119.945  0.00  0.00    -0.311 N 
ATOM     14  C   LIG d   1      -0.670  93.121 120.147  0.00  0.00     0.210 C 
ATOM     15  C   LIG d   1       0.154  92.863 121.413  0.00  0.00     0.109 C 
ATOM     16  O   LIG d   1      -0.406  94.088 119.416  0.00  0.00    -0.276 OA
ATOM     17  H   LIG d   1      -1.834  91.532 120.605  0.00  0.00     0.149 HD
ENDBRANCH   6  13
BRANCH   5  18
ATOM     18  N   LIG d   1      -3.548  94.594 119.314  0.00  0.00     0.381 N 
ATOM     19  H   LIG d   1      -2.808  94.665 119.983  0.00  0.00    -0.090 HD
ATOM     20  H   LIG d   1      -4.367  95.030 119.700  0.00  0.00    -0.090 HD
ATOM     21  H   LIG d   1      -3.286  95.053 118.469  0.00  0.00    -0.090 HD
ENDBRANCH   5  18
BRANCH   3  22
ATOM     22  C   LIG d   1      -6.225  91.552 116.762  0.00  0.00     0.382 C 
ATOM     23  O   LIG d   1      -7.033  92.488 116.550  0.00  0.00    -0.241 OA
ATOM     24  O   LIG d   1      -6.540  90.387 116.450  0.00  0.00    -0.241 OA
ENDBRANCH   3  22
TORSDOF 7
ENDMDL
MODEL 5
REMARK VINA RESULT:      -4.5      2.210      4.863
REMARK  7 active torsions:
REMARK  status: ('A' for Active; 'I' for Inactive)
REMARK    1  A    between atoms: C_2  and  C_3 
REMARK    2  A    between atoms: C_3  and  O_6 
REMARK    3  A    between atoms: C_3  and  C_4 
REMARK    4  A    between atoms: C_7  and  O_6 
REMARK    5  A    between atoms: C_9  and  C_10 
REMARK    6  A    between atoms: N_15  and  C_14 
REMARK    7  A    between atoms: N_20  and  C_19 
REMARK       I    between atoms: C_22  and  N_20 
ROOT
ATOM      1  C   LIG d   1      -6.310  93.356 118.714  0.00  0.00     0.161 C 
ATOM      2  C   LIG d   1      -7.703  93.438 118.882  0.00  0.00     0.016 C 
ATOM      3  C   LIG d   1      -8.318  94.130 119.951  0.00  0.00     0.038 C 
ATOM      4  C   LIG d   1      -7.580  94.919 120.846  0.00  0.00     0.028 C 
ATOM      5  C   LIG d   1      -6.137  94.455 121.014  0.00  0.00    -0.047 C 
ATOM      6  C   LIG d   1      -5.493  94.303 119.617  0.00  0.00     0.091 C 
ENDROOT
BRANCH   1   7
ATOM      7  O   LIG d   1      -5.972  93.569 117.329  0.00  0.00    -0.368 OA
BRANCH   7   8
ATOM      8  C   LIG d   1      -5.325  92.462 116.654  0.00  0.00     0.119 C 
BRANCH   8   9
ATOM      9  C   LIG d   1      -6.242  92.027 115.495  0.00  0.00     0.028 C 
ATOM     10  C   LIG d   1      -6.940  90.685 115.771  0.00  0.00     0.006 C 
ENDBRANCH   8   9
BRANCH   8  11
ATOM     11  C   LIG d   1      -5.218  91.238 117.567  0.00  0.00     0.028 C 
ATOM     12  C   LIG d   1      -3.772  90.741 117.730  0.00  0.00     0.006 C 
ENDBRANCH   8  11
ENDBRANCH   7   8
ENDBRANCH   1   7
BRANCH   6  13
ATOM     13  N   LIG d   1      -4.106  93.772 119.687  0.00  0.00    -0.311 N 
ATOM     14  C   LIG d   1      -3.022  94.545 119.638  0.00  0.00     0.210 C 
ATOM     15  C   LIG d   1      -1.689  93.793 119.706  0.00  0.00     0.109 C 
ATOM     16  O   LIG d   1      -3.039  95.783 119.577  0.00  0.00    -0.276 OA
ATOM     17  H   LIG d   1      -4.001  92.780 119.769  0.00  0.00     0.149 HD
ENDBRANCH   6  13
BRANCH   5  18
ATOM     18  N   LIG d   1      -5.447  95.444 121.864  0.00  0.00     0.381 N 
ATOM     19  H   LIG d   1      -4.825  94.976 122.492  0.00  0.00    -0.090 HD
ATOM     20  H   LIG d   1      -6.132  95.938 122.409  0.00  0.00    -0.090 HD
ATOM     21  H   LIG d   1      -4.938  96.085 121.297  0.00  0.00    -0.090 HD
ENDBRANCH   5  18
BRANCH   3  22
ATOM     22  C   LIG d   1      -9.683  94.003 120.156  0.00  0.00     0.382 C 
ATOM     23  O   LIG d   1     -10.484  94.708 119.496  0.00  0.00    -0.241 OA
ATOM     24  O   LIG d   1     -10.122  93.225 121.024  0.00  0.00    -0.241 OA
ENDBRANCH   3  22
TORSDOF 7
ENDMDL
MODEL 6
REMARK VINA RESULT:      -4.5      2.584      4.829
REMARK  7 active torsions:
REMARK  status: ('A' for Active; 'I' for Inactive)
REMARK    1  A    between atoms: C_2  and  C_3 
REMARK    2  A    between atoms: C_3  and  O_6 
REMARK    3  A    between atoms: C_3  and  C_4 
REMARK    4  A    between atoms: C_7  and  O_6 
REMARK    5  A    between atoms: C_9  and  C_10 
REMARK    6  A    between atoms: N_15  and  C_14 
REMARK    7  A    between atoms: N_20  and  C_19 
REMARK       I    between atoms: C_22  and  N_20 
ROOT
ATOM      1  C   LIG d   1      -4.364  94.170 118.798  0.00  0.00     0.161 C 
ATOM      2  C   LIG d   1      -5.611  94.801 118.656  0.00  0.00     0.016 C 
ATOM      3  C   LIG d   1      -6.645  94.303 117.829  0.00  0.00     0.038 C 
ATOM      4  C   LIG d   1      -6.554  93.052 117.201  0.00  0.00     0.028 C 
ATOM      5  C   LIG d   1      -5.120  92.622 116.911  0.00  0.00    -0.047 C 
ATOM      6  C   LIG d   1      -4.287  92.747 118.208  0.00  0.00     0.091 C 
ENDROOT
BRANCH   1   7
ATOM      7  O   LIG d   1      -3.977  94.159 120.186  0.00  0.00    -0.368 OA
BRANCH   7   8
ATOM      8  C   LIG d   1      -4.354  92.982 120.943  0.00  0.00     0.119 C 
BRANCH   8   9
ATOM      9  C   LIG d   1      -5.641  93.322 121.719  0.00  0.00     0.028 C 
ATOM     10  C   LIG d   1      -6.846  92.489 121.253  0.00  0.00     0.006 C 
ENDBRANCH   8   9
BRANCH   8  11
ATOM     11  C   LIG d   1      -3.310  92.649 122.013  0.00  0.00     0.028 C 
ATOM     12  C   LIG d   1      -2.609  91.305 121.764  0.00  0.00     0.006 C 
ENDBRANCH   8  11
ENDBRANCH   7   8
ENDBRANCH   1   7
BRANCH   6  13
ATOM     13  N   LIG d   1      -2.852  92.425 117.993  0.00  0.00    -0.311 N 
ATOM     14  C   LIG d   1      -2.344  91.204 118.144  0.00  0.00     0.210 C 
ATOM     15  C   LIG d   1      -0.837  91.095 117.892  0.00  0.00     0.109 C 
ATOM     16  O   LIG d   1      -3.004  90.194 118.431  0.00  0.00    -0.276 OA
ATOM     17  H   LIG d   1      -2.251  93.180 117.727  0.00  0.00     0.149 HD
ENDBRANCH   6  13
BRANCH   5  18
ATOM     18  N   LIG d   1      -5.166  91.245 116.384  0.00  0.00     0.381 N 
ATOM     19  H   LIG d   1      -4.936  90.596 117.110  0.00  0.00    -0.090 HD
ATOM     20  H   LIG d   1      -4.483  91.154 115.653  0.00  0.00    -0.090 HD
ATOM     21  H   LIG d   1      -6.074  91.046 116.027  0.00  0.00    -0.090 HD
ENDBRANCH   5  18
BRANCH   3  22
ATOM     22  C   LIG d   1      -7.769  95.079 117.592  0.00  0.00     0.382 C 
ATOM     23  O   LIG d   1      -8.913  94.579 117.714  0.00  0.00    -0.241 OA
ATOM     24  O   LIG d   1      -7.653  96.261 117.214  0.00  0.00    -0.241 OA
ENDBRANCH   3  22
TORSDOF 7
ENDMDL
MODEL 7
REMARK VINA RESULT:      -4.5      2.069      4.253
REMARK  7 active torsions:
REMARK  status: ('A' for Active; 'I' for Inactive)
REMARK    1  A    between atoms: C_2  and  C_3 
REMARK    2  A    between atoms: C_3  and  O_6 
REMARK    3  A    between atoms: C_3  and  C_4 
REMARK    4  A    between atoms: C_7  and  O_6 
REMARK    5  A    between atoms: C_9  and  C_10 
REMARK    6  A    between atoms: N_15  and  C_14 
REMARK    7  A    between atoms: N_20  and  C_19 
REMARK       I    between atoms: C_22  and  N_20 
ROOT
ATOM      1  C   LIG d   1      -4.935  93.118 118.582  0.00  0.00     0.161 C 
ATOM      2  C   LIG d   1      -4.836  91.970 117.779  0.00  0.00     0.016 C 
ATOM      3  C   LIG d   1      -5.728  91.682 116.720  0.00  0.00     0.038 C 
ATOM      4  C   LIG d   1      -6.695  92.604 116.293  0.00  0.00     0.028 C 
ATOM      5  C   LIG d   1      -7.156  93.552 117.395  0.00  0.00    -0.047 C 
ATOM      6  C   LIG d   1      -5.915  94.190 118.060  0.00  0.00     0.091 C 
ENDROOT
BRANCH   1   7
ATOM      7  O   LIG d   1      -3.627  93.690 118.780  0.00  0.00    -0.368 OA
BRANCH   7   8
ATOM      8  C   LIG d   1      -3.153  93.737 120.148  0.00  0.00     0.119 C 
BRANCH   8   9
ATOM      9  C   LIG d   1      -2.882  95.214 120.494  0.00  0.00     0.028 C 
ATOM     10  C   LIG d   1      -3.644  95.672 121.749  0.00  0.00     0.006 C 
ENDBRANCH   8   9
BRANCH   8  11
ATOM     11  C   LIG d   1      -1.801  93.032 120.294  0.00  0.00     0.028 C 
ATOM     12  C   LIG d   1      -0.609  93.974 120.062  0.00  0.00     0.006 C 
ENDBRANCH   8  11
ENDBRANCH   7   8
ENDBRANCH   1   7
BRANCH   6  13
ATOM     13  N   LIG d   1      -6.274  95.067 119.206  0.00  0.00    -0.311 N 
ATOM     14  C   LIG d   1      -6.544  96.365 119.078  0.00  0.00     0.210 C 
ATOM     15  C   LIG d   1      -6.871  97.088 120.388  0.00  0.00     0.109 C 
ATOM     16  O   LIG d   1      -6.575  96.979 118.001  0.00  0.00    -0.276 OA
ATOM     17  H   LIG d   1      -6.302  94.644 120.113  0.00  0.00     0.149 HD
ENDBRANCH   6  13
BRANCH   5  18
ATOM     18  N   LIG d   1      -8.058  94.545 116.781  0.00  0.00     0.381 N 
ATOM     19  H   LIG d   1      -8.368  94.214 115.889  0.00  0.00    -0.090 HD
ATOM     20  H   LIG d   1      -7.551  95.401 116.641  0.00  0.00    -0.090 HD
ATOM     21  H   LIG d   1      -8.841  94.707 117.375  0.00  0.00    -0.090 HD
ENDBRANCH   5  18
BRANCH   3  22
ATOM     22  C   LIG d   1      -5.683  90.441 116.102  0.00  0.00     0.382 C 
ATOM     23  O   LIG d   1      -6.749  89.850 115.804  0.00  0.00    -0.241 OA
ATOM     24  O   LIG d   1      -4.591  89.886 115.878  0.00  0.00    -0.241 OA
ENDBRANCH   3  22
TORSDOF 7
ENDMDL
MODEL 8
REMARK VINA RESULT:      -4.5      2.000      2.264
REMARK  7 active torsions:
REMARK  status: ('A' for Active; 'I' for Inactive)
REMARK    1  A    between atoms: C_2  and  C_3 
REMARK    2  A    between atoms: C_3  and  O_6 
REMARK    3  A    between atoms: C_3  and  C_4 
REMARK    4  A    between atoms: C_7  and  O_6 
REMARK    5  A    between atoms: C_9  and  C_10 
REMARK    6  A    between atoms: N_15  and  C_14 
REMARK    7  A    between atoms: N_20  and  C_19 
REMARK       I    between atoms: C_22  and  N_20 
ROOT
ATOM      1  C   LIG d   1      -4.356  93.768 118.074  0.00  0.00     0.161 C 
ATOM      2  C   LIG d   1      -5.223  92.992 117.287  0.00  0.00     0.016 C 
ATOM      3  C   LIG d   1      -5.089  91.593 117.129  0.00  0.00     0.038 C 
ATOM      4  C   LIG d   1      -4.162  90.849 117.874  0.00  0.00     0.028 C 
ATOM      5  C   LIG d   1      -2.938  91.654 118.296  0.00  0.00    -0.047 C 
ATOM      6  C   LIG d   1      -3.407  92.958 118.981  0.00  0.00     0.091 C 
ENDROOT
BRANCH   1   7
ATOM      7  O   LIG d   1      -5.117  94.708 118.857  0.00  0.00    -0.368 OA
BRANCH   7   8
ATOM      8  C   LIG d   1      -6.537  94.442 118.970  0.00  0.00     0.119 C 
BRANCH   8   9
ATOM      9  C   LIG d   1      -7.282  95.745 118.618  0.00  0.00     0.028 C 
ATOM     10  C   LIG d   1      -8.531  95.493 117.757  0.00  0.00     0.006 C 
ENDBRANCH   8   9
BRANCH   8  11
ATOM     11  C   LIG d   1      -6.932  94.127 120.415  0.00  0.00     0.028 C 
ATOM     12  C   LIG d   1      -6.845  92.628 120.744  0.00  0.00     0.006 C 
ENDBRANCH   8  11
ENDBRANCH   7   8
ENDBRANCH   1   7
BRANCH   6  13
ATOM     13  N   LIG d   1      -2.273  93.844 119.350  0.00  0.00    -0.311 N 
ATOM     14  C   LIG d   1      -1.696  93.835 120.551  0.00  0.00     0.210 C 
ATOM     15  C   LIG d   1      -0.556  94.843 120.728  0.00  0.00     0.109 C 
ATOM     16  O   LIG d   1      -1.999  93.066 121.475  0.00  0.00    -0.276 OA
ATOM     17  H   LIG d   1      -1.943  94.479 118.650  0.00  0.00     0.149 HD
ENDBRANCH   6  13
BRANCH   5  18
ATOM     18  N   LIG d   1      -2.123  90.798 119.179  0.00  0.00     0.381 N 
ATOM     19  H   LIG d   1      -1.249  90.592 118.739  0.00  0.00    -0.090 HD
ATOM     20  H   LIG d   1      -2.611  89.933 119.332  0.00  0.00    -0.090 HD
ATOM     21  H   LIG d   1      -1.966  91.257 120.049  0.00  0.00    -0.090 HD
ENDBRANCH   5  18
BRANCH   3  22
ATOM     22  C   LIG d   1      -5.862  90.930 116.188  0.00  0.00     0.382 C 
ATOM     23  O   LIG d   1      -7.026  91.327 115.941  0.00  0.00    -0.241 OA
ATOM     24  O   LIG d   1      -5.425  89.914 115.615  0.00  0.00    -0.241 OA
ENDBRANCH   3  22
TORSDOF 7
ENDMDL
MODEL 9
REMARK VINA RESULT:      -4.4      2.195      4.935
REMARK  7 active torsions:
REMARK  status: ('A' for Active; 'I' for Inactive)
REMARK    1  A    between atoms: C_2  and  C_3 
REMARK    2  A    between atoms: C_3  and  O_6 
REMARK    3  A    between atoms: C_3  and  C_4 
REMARK    4  A    between atoms: C_7  and  O_6 
REMARK    5  A    between atoms: C_9  and  C_10 
REMARK    6  A    between atoms: N_15  and  C_14 
REMARK    7  A    between atoms: N_20  and  C_19 
REMARK       I    between atoms: C_22  and  N_20 
ROOT
ATOM      1  C   LIG d   1      -5.367  93.700 118.718  0.00  0.00     0.161 C 
ATOM      2  C   LIG d   1      -6.534  94.141 118.071  0.00  0.00     0.016 C 
ATOM      3  C   LIG d   1      -7.041  95.456 118.190  0.00  0.00     0.038 C 
ATOM      4  C   LIG d   1      -6.327  96.469 118.847  0.00  0.00     0.028 C 
ATOM      5  C   LIG d   1      -5.399  95.945 119.938  0.00  0.00    -0.047 C 
ATOM      6  C   LIG d   1      -4.516  94.822 119.349  0.00  0.00     0.091 C 
ENDROOT
BRANCH   1   7
ATOM      7  O   LIG d   1      -4.570  92.918 117.808  0.00  0.00    -0.368 OA
BRANCH   7   8
ATOM      8  C   LIG d   1      -4.936  91.522 117.678  0.00  0.00     0.119 C 
BRANCH   8   9
ATOM      9  C   LIG d   1      -3.646  90.690 117.813  0.00  0.00     0.028 C 
ATOM     10  C   LIG d   1      -2.491  91.496 118.431  0.00  0.00     0.006 C 
ENDBRANCH   8   9
BRANCH   8  11
ATOM     11  C   LIG d   1      -5.472  91.214 116.276  0.00  0.00     0.028 C 
ATOM     12  C   LIG d   1      -6.944  90.775 116.284  0.00  0.00     0.006 C 
ENDBRANCH   8  11
ENDBRANCH   7   8
ENDBRANCH   1   7
BRANCH   6  13
ATOM     13  N   LIG d   1      -3.636  94.197 120.372  0.00  0.00    -0.311 N 
ATOM     14  C   LIG d   1      -2.382  94.584 120.595  0.00  0.00     0.210 C 
ATOM     15  C   LIG d   1      -1.644  93.793 121.680  0.00  0.00     0.109 C 
ATOM     16  O   LIG d   1      -1.820  95.527 120.019  0.00  0.00    -0.276 OA
ATOM     17  H   LIG d   1      -4.023  93.443 120.907  0.00  0.00     0.149 HD
ENDBRANCH   6  13
BRANCH   5  18
ATOM     18  N   LIG d   1      -4.617  97.089 120.445  0.00  0.00     0.381 N 
ATOM     19  H   LIG d   1      -4.963  97.364 121.342  0.00  0.00    -0.090 HD
ATOM     20  H   LIG d   1      -4.727  97.863 119.814  0.00  0.00    -0.090 HD
ATOM     21  H   LIG d   1      -3.655  96.841 120.513  0.00  0.00    -0.090 HD
ENDBRANCH   5  18
BRANCH   3  22
ATOM     22  C   LIG d   1      -8.294  95.757 117.680  0.00  0.00     0.382 C 
ATOM     23  O   LIG d   1      -8.672  96.952 117.610  0.00  0.00    -0.241 OA
ATOM     24  O   LIG d   1      -9.070  94.848 117.332  0.00  0.00    -0.241 OA
ENDBRANCH   3  22
TORSDOF 7
ENDMDL
