MODEL 1
REMARK VINA RESULT:      -5.9      0.000      0.000
REMARK  7 active torsions:
REMARK  status: ('A' for Active; 'I' for Inactive)
REMARK    1  A    between atoms: C_2  and  C_3 
REMARK    2  A    between atoms: C_3  and  O_6 
REMARK    3  A    between atoms: C_3  and  C_4 
REMARK    4  A    between atoms: C_7  and  O_6 
REMARK    5  A    between atoms: C_9  and  C_10 
REMARK    6  A    between atoms: N_15  and  C_14 
REMARK    7  A    between atoms: N_20  and  C_19 
REMARK       I    between atoms: C_22  and  N_20 
ROOT
ATOM      1  C   LIG d   1      -4.707  91.382 117.853  0.00  0.00     0.161 C 
ATOM      2  C   LIG d   1      -3.675  92.232 118.286  0.00  0.00     0.016 C 
ATOM      3  C   LIG d   1      -3.905  93.465 118.937  0.00  0.00     0.038 C 
ATOM      4  C   LIG d   1      -5.189  93.864 119.338  0.00  0.00     0.028 C 
ATOM      5  C   LIG d   1      -6.302  93.278 118.476  0.00  0.00    -0.047 C 
ATOM      6  C   LIG d   1      -6.110  91.747 118.381  0.00  0.00     0.091 C 
ENDROOT
BRANCH   1   7
ATOM      7  O   LIG d   1      -4.386  90.016 118.186  0.00  0.00    -0.368 OA
BRANCH   7   8
ATOM      8  C   LIG d   1      -3.087  89.795 118.788  0.00  0.00     0.119 C 
BRANCH   8   9
ATOM      9  C   LIG d   1      -2.353  88.744 117.932  0.00  0.00     0.028 C 
ATOM     10  C   LIG d   1      -1.737  87.621 118.782  0.00  0.00     0.006 C 
ENDBRANCH   8   9
BRANCH   8  11
ATOM     11  C   LIG d   1      -3.217  89.166 120.178  0.00  0.00     0.028 C 
ATOM     12  C   LIG d   1      -3.134  90.202 121.311  0.00  0.00     0.006 C 
ENDBRANCH   8  11
ENDBRANCH   7   8
ENDBRANCH   1   7
BRANCH   6  13
ATOM     13  N   LIG d   1      -7.108  91.105 117.486  0.00  0.00    -0.311 N 
ATOM     14  C   LIG d   1      -7.115  91.262 116.164  0.00  0.00     0.210 C 
ATOM     15  C   LIG d   1      -8.242  90.528 115.431  0.00  0.00     0.109 C 
ATOM     16  O   LIG d   1      -6.275  91.912 115.524  0.00  0.00    -0.276 OA
ATOM     17  H   LIG d   1      -7.808  90.534 117.919  0.00  0.00     0.149 HD
ENDBRANCH   6  13
BRANCH   5  18
ATOM     18  N   LIG d   1      -7.588  93.662 119.087  0.00  0.00     0.381 N 
ATOM     19  H   LIG d   1      -7.466  94.483 119.646  0.00  0.00    -0.090 HD
ATOM     20  H   LIG d   1      -7.900  92.917 119.685  0.00  0.00    -0.090 HD
ATOM     21  H   LIG d   1      -8.266  93.833 118.377  0.00  0.00    -0.090 HD
ENDBRANCH   5  18
BRANCH   3  22
ATOM     22  C   LIG d   1      -2.847  94.333 119.159  0.00  0.00     0.382 C 
ATOM     23  O   LIG d   1      -2.891  95.145 120.114  0.00  0.00    -0.241 OA
ATOM     24  O   LIG d   1      -1.868  94.345 118.389  0.00  0.00    -0.241 OA
ENDBRANCH   3  22
TORSDOF 7
ENDMDL
MODEL 2
REMARK VINA RESULT:      -5.8      1.930      4.700
REMARK  7 active torsions:
REMARK  status: ('A' for Active; 'I' for Inactive)
REMARK    1  A    between atoms: C_2  and  C_3 
REMARK    2  A    between atoms: C_3  and  O_6 
REMARK    3  A    between atoms: C_3  and  C_4 
REMARK    4  A    between atoms: C_7  and  O_6 
REMARK    5  A    between atoms: C_9  and  C_10 
REMARK    6  A    between atoms: N_15  and  C_14 
REMARK    7  A    between atoms: N_20  and  C_19 
REMARK       I    between atoms: C_22  and  N_20 
ROOT
ATOM      1  C   LIG d   1      -4.198  91.697 118.664  0.00  0.00     0.161 C 
ATOM      2  C   LIG d   1      -5.018  90.869 117.880  0.00  0.00     0.016 C 
ATOM      3  C   LIG d   1      -6.282  91.267 117.387  0.00  0.00     0.038 C 
ATOM      4  C   LIG d   1      -6.748  92.584 117.519  0.00  0.00     0.028 C 
ATOM      5  C   LIG d   1      -6.179  93.309 118.734  0.00  0.00    -0.047 C 
ATOM      6  C   LIG d   1      -4.639  93.174 118.724  0.00  0.00     0.091 C 
ENDROOT
BRANCH   1   7
ATOM      7  O   LIG d   1      -2.832  91.600 118.212  0.00  0.00    -0.368 OA
BRANCH   7   8
ATOM      8  C   LIG d   1      -1.975  90.704 118.961  0.00  0.00     0.119 C 
BRANCH   8   9
ATOM      9  C   LIG d   1      -0.808  91.540 119.521  0.00  0.00     0.028 C 
ATOM     10  C   LIG d   1      -0.004  92.241 118.413  0.00  0.00     0.006 C 
ENDBRANCH   8   9
BRANCH   8  11
ATOM     11  C   LIG d   1      -1.325  89.661 118.047  0.00  0.00     0.028 C 
ATOM     12  C   LIG d   1      -2.089  88.327 118.027  0.00  0.00     0.006 C 
ENDBRANCH   8  11
ENDBRANCH   7   8
ENDBRANCH   1   7
BRANCH   6  13
ATOM     13  N   LIG d   1      -4.009  93.783 119.924  0.00  0.00    -0.311 N 
ATOM     14  C   LIG d   1      -2.949  94.588 119.867  0.00  0.00     0.210 C 
ATOM     15  C   LIG d   1      -2.445  95.091 121.224  0.00  0.00     0.109 C 
ATOM     16  O   LIG d   1      -2.398  94.958 118.820  0.00  0.00    -0.276 OA
ATOM     17  H   LIG d   1      -4.412  93.561 120.814  0.00  0.00     0.149 HD
ENDBRANCH   6  13
BRANCH   5  18
ATOM     18  N   LIG d   1      -6.638  94.710 118.673  0.00  0.00     0.381 N 
ATOM     19  H   LIG d   1      -7.082  94.882 117.794  0.00  0.00    -0.090 HD
ATOM     20  H   LIG d   1      -5.840  95.316 118.747  0.00  0.00    -0.090 HD
ATOM     21  H   LIG d   1      -7.274  94.893 119.417  0.00  0.00    -0.090 HD
ENDBRANCH   5  18
BRANCH   3  22
ATOM     22  C   LIG d   1      -7.112  90.332 116.788  0.00  0.00     0.382 C 
ATOM     23  O   LIG d   1      -8.313  90.243 117.141  0.00  0.00    -0.241 OA
ATOM     24  O   LIG d   1      -6.665  89.547 115.932  0.00  0.00    -0.241 OA
ENDBRANCH   3  22
TORSDOF 7
ENDMDL
MODEL 3
REMARK VINA RESULT:      -5.6      2.715      6.461
REMARK  7 active torsions:
REMARK  status: ('A' for Active; 'I' for Inactive)
REMARK    1  A    between atoms: C_2  and  C_3 
REMARK    2  A    between atoms: C_3  and  O_6 
REMARK    3  A    between atoms: C_3  and  C_4 
REMARK    4  A    between atoms: C_7  and  O_6 
REMARK    5  A    between atoms: C_9  and  C_10 
REMARK    6  A    between atoms: N_15  and  C_14 
REMARK    7  A    between atoms: N_20  and  C_19 
REMARK       I    between atoms: C_22  and  N_20 
ROOT
ATOM      1  C   LIG d   1      -6.308  93.565 118.422  0.00  0.00     0.161 C 
ATOM      2  C   LIG d   1      -7.093  92.650 117.700  0.00  0.00     0.016 C 
ATOM      3  C   LIG d   1      -6.593  91.432 117.185  0.00  0.00     0.038 C 
ATOM      4  C   LIG d   1      -5.303  90.972 117.489  0.00  0.00     0.028 C 
ATOM      5  C   LIG d   1      -4.315  92.095 117.790  0.00  0.00    -0.047 C 
ATOM      6  C   LIG d   1      -4.928  93.029 118.858  0.00  0.00     0.091 C 
ENDROOT
BRANCH   1   7
ATOM      7  O   LIG d   1      -7.043  94.045 119.565  0.00  0.00    -0.368 OA
BRANCH   7   8
ATOM      8  C   LIG d   1      -7.733  95.307 119.395  0.00  0.00     0.119 C 
BRANCH   8   9
ATOM      9  C   LIG d   1      -6.981  96.362 120.230  0.00  0.00     0.028 C 
ATOM     10  C   LIG d   1      -6.082  97.263 119.367  0.00  0.00     0.006 C 
ENDBRANCH   8   9
BRANCH   8  11
ATOM     11  C   LIG d   1      -9.145  95.255 119.984  0.00  0.00     0.028 C 
ATOM     12  C   LIG d   1      -9.170  94.724 121.426  0.00  0.00     0.006 C 
ENDBRANCH   8  11
ENDBRANCH   7   8
ENDBRANCH   1   7
BRANCH   6  13
ATOM     13  N   LIG d   1      -4.062  94.201 119.150  0.00  0.00    -0.311 N 
ATOM     14  C   LIG d   1      -3.193  94.237 120.159  0.00  0.00     0.210 C 
ATOM     15  C   LIG d   1      -2.414  95.550 120.294  0.00  0.00     0.109 C 
ATOM     16  O   LIG d   1      -2.971  93.296 120.935  0.00  0.00    -0.276 OA
ATOM     17  H   LIG d   1      -4.155  94.997 118.551  0.00  0.00     0.149 HD
ENDBRANCH   6  13
BRANCH   5  18
ATOM     18  N   LIG d   1      -3.051  91.471 118.224  0.00  0.00     0.381 N 
ATOM     19  H   LIG d   1      -3.219  90.874 119.009  0.00  0.00    -0.090 HD
ATOM     20  H   LIG d   1      -2.413  92.193 118.508  0.00  0.00    -0.090 HD
ATOM     21  H   LIG d   1      -2.656  90.945 117.476  0.00  0.00    -0.090 HD
ENDBRANCH   5  18
BRANCH   3  22
ATOM     22  C   LIG d   1      -7.375  90.679 116.322  0.00  0.00     0.382 C 
ATOM     23  O   LIG d   1      -8.313  91.221 115.691  0.00  0.00    -0.241 OA
ATOM     24  O   LIG d   1      -7.181  89.454 116.201  0.00  0.00    -0.241 OA
ENDBRANCH   3  22
TORSDOF 7
ENDMDL
MODEL 4
REMARK VINA RESULT:      -5.4      2.211      4.666
REMARK  7 active torsions:
REMARK  status: ('A' for Active; 'I' for Inactive)
REMARK    1  A    between atoms: C_2  and  C_3 
REMARK    2  A    between atoms: C_3  and  O_6 
REMARK    3  A    between atoms: C_3  and  C_4 
REMARK    4  A    between atoms: C_7  and  O_6 
REMARK    5  A    between atoms: C_9  and  C_10 
REMARK    6  A    between atoms: N_15  and  C_14 
REMARK    7  A    between atoms: N_20  and  C_19 
REMARK       I    between atoms: C_22  and  N_20 
ROOT
ATOM      1  C   LIG d   1      -4.968  92.077 119.371  0.00  0.00     0.161 C 
ATOM      2  C   LIG d   1      -5.100  91.104 118.366  0.00  0.00     0.016 C 
ATOM      3  C   LIG d   1      -6.045  91.191 117.318  0.00  0.00     0.038 C 
ATOM      4  C   LIG d   1      -6.827  92.338 117.118  0.00  0.00     0.028 C 
ATOM      5  C   LIG d   1      -7.085  93.126 118.398  0.00  0.00    -0.047 C 
ATOM      6  C   LIG d   1      -5.737  93.388 119.106  0.00  0.00     0.091 C 
ENDROOT
BRANCH   1   7
ATOM      7  O   LIG d   1      -3.573  92.352 119.605  0.00  0.00    -0.368 OA
BRANCH   7   8
ATOM      8  C   LIG d   1      -2.763  92.587 118.427  0.00  0.00     0.119 C 
BRANCH   8   9
ATOM      9  C   LIG d   1      -1.516  91.688 118.536  0.00  0.00     0.028 C 
ATOM     10  C   LIG d   1      -1.410  90.995 119.905  0.00  0.00     0.006 C 
ENDBRANCH   8   9
BRANCH   8  11
ATOM     11  C   LIG d   1      -2.228  94.021 118.396  0.00  0.00     0.028 C 
ATOM     12  C   LIG d   1      -2.250  94.696 119.777  0.00  0.00     0.006 C 
ENDBRANCH   8  11
ENDBRANCH   7   8
ENDBRANCH   1   7
BRANCH   6  13
ATOM     13  N   LIG d   1      -5.907  94.081 120.410  0.00  0.00    -0.311 N 
ATOM     14  C   LIG d   1      -5.836  95.404 120.552  0.00  0.00     0.210 C 
ATOM     15  C   LIG d   1      -6.021  95.910 121.986  0.00  0.00     0.109 C 
ATOM     16  O   LIG d   1      -5.670  96.207 119.622  0.00  0.00    -0.276 OA
ATOM     17  H   LIG d   1      -6.076  93.507 121.213  0.00  0.00     0.149 HD
ENDBRANCH   6  13
BRANCH   5  18
ATOM     18  N   LIG d   1      -7.793  94.365 118.023  0.00  0.00     0.381 N 
ATOM     19  H   LIG d   1      -8.747  94.312 118.318  0.00  0.00    -0.090 HD
ATOM     20  H   LIG d   1      -7.776  94.459 117.023  0.00  0.00    -0.090 HD
ATOM     21  H   LIG d   1      -7.350  95.151 118.445  0.00  0.00    -0.090 HD
ENDBRANCH   5  18
BRANCH   3  22
ATOM     22  C   LIG d   1      -6.244  90.104 116.480  0.00  0.00     0.382 C 
ATOM     23  O   LIG d   1      -7.388  89.604 116.362  0.00  0.00    -0.241 OA
ATOM     24  O   LIG d   1      -5.284  89.589 115.875  0.00  0.00    -0.241 OA
ENDBRANCH   3  22
TORSDOF 7
ENDMDL
MODEL 5
REMARK VINA RESULT:      -5.3      2.500      5.133
REMARK  7 active torsions:
REMARK  status: ('A' for Active; 'I' for Inactive)
REMARK    1  A    between atoms: C_2  and  C_3 
REMARK    2  A    between atoms: C_3  and  O_6 
REMARK    3  A    between atoms: C_3  and  C_4 
REMARK    4  A    between atoms: C_7  and  O_6 
REMARK    5  A    between atoms: C_9  and  C_10 
REMARK    6  A    between atoms: N_15  and  C_14 
REMARK    7  A    between atoms: N_20  and  C_19 
REMARK       I    between atoms: C_22  and  N_20 
ROOT
ATOM      1  C   LIG d   1      -5.676  93.109 119.422  0.00  0.00     0.161 C 
ATOM      2  C   LIG d   1      -4.589  92.246 119.204  0.00  0.00     0.016 C 
ATOM      3  C   LIG d   1      -4.488  91.392 118.082  0.00  0.00     0.038 C 
ATOM      4  C   LIG d   1      -5.400  91.453 117.018  0.00  0.00     0.028 C 
ATOM      5  C   LIG d   1      -6.782  91.948 117.433  0.00  0.00    -0.047 C 
ATOM      6  C   LIG d   1      -6.626  93.271 118.217  0.00  0.00     0.091 C 
ENDROOT
BRANCH   1   7
ATOM      7  O   LIG d   1      -5.197  94.397 119.859  0.00  0.00    -0.368 OA
BRANCH   7   8
ATOM      8  C   LIG d   1      -5.269  94.654 121.283  0.00  0.00     0.119 C 
BRANCH   8   9
ATOM      9  C   LIG d   1      -6.371  93.747 121.862  0.00  0.00     0.028 C 
ATOM     10  C   LIG d   1      -7.550  94.551 122.437  0.00  0.00     0.006 C 
ENDBRANCH   8   9
BRANCH   8  11
ATOM     11  C   LIG d   1      -5.730  96.086 121.568  0.00  0.00     0.028 C 
ATOM     12  C   LIG d   1      -4.564  97.035 121.888  0.00  0.00     0.006 C 
ENDBRANCH   8  11
ENDBRANCH   7   8
ENDBRANCH   1   7
BRANCH   6  13
ATOM     13  N   LIG d   1      -7.924  93.780 118.733  0.00  0.00    -0.311 N 
ATOM     14  C   LIG d   1      -8.237  95.074 118.779  0.00  0.00     0.210 C 
ATOM     15  C   LIG d   1      -9.618  95.384 119.366  0.00  0.00     0.109 C 
ATOM     16  O   LIG d   1      -7.516  95.992 118.360  0.00  0.00    -0.276 OA
ATOM     17  H   LIG d   1      -8.581  93.101 119.064  0.00  0.00     0.149 HD
ENDBRANCH   6  13
BRANCH   5  18
ATOM     18  N   LIG d   1      -7.589  92.094 116.207  0.00  0.00     0.381 N 
ATOM     19  H   LIG d   1      -7.874  93.048 116.101  0.00  0.00    -0.090 HD
ATOM     20  H   LIG d   1      -8.414  91.526 116.291  0.00  0.00    -0.090 HD
ATOM     21  H   LIG d   1      -7.059  91.808 115.413  0.00  0.00    -0.090 HD
ENDBRANCH   5  18
BRANCH   3  22
ATOM     22  C   LIG d   1      -3.485  90.435 118.035  0.00  0.00     0.382 C 
ATOM     23  O   LIG d   1      -3.695  89.334 117.472  0.00  0.00    -0.241 OA
ATOM     24  O   LIG d   1      -2.389  90.641 118.589  0.00  0.00    -0.241 OA
ENDBRANCH   3  22
TORSDOF 7
ENDMDL
MODEL 6
REMARK VINA RESULT:      -5.3      2.355      4.585
REMARK  7 active torsions:
REMARK  status: ('A' for Active; 'I' for Inactive)
REMARK    1  A    between atoms: C_2  and  C_3 
REMARK    2  A    between atoms: C_3  and  O_6 
REMARK    3  A    between atoms: C_3  and  C_4 
REMARK    4  A    between atoms: C_7  and  O_6 
REMARK    5  A    between atoms: C_9  and  C_10 
REMARK    6  A    between atoms: N_15  and  C_14 
REMARK    7  A    between atoms: N_20  and  C_19 
REMARK       I    between atoms: C_22  and  N_20 
ROOT
ATOM      1  C   LIG d   1      -4.392  92.537 119.214  0.00  0.00     0.161 C 
ATOM      2  C   LIG d   1      -5.435  93.470 119.341  0.00  0.00     0.016 C 
ATOM      3  C   LIG d   1      -6.565  93.494 118.492  0.00  0.00     0.038 C 
ATOM      4  C   LIG d   1      -6.804  92.485 117.547  0.00  0.00     0.028 C 
ATOM      5  C   LIG d   1      -5.532  91.812 117.045  0.00  0.00    -0.047 C 
ATOM      6  C   LIG d   1      -4.689  91.361 118.260  0.00  0.00     0.091 C 
ENDROOT
BRANCH   1   7
ATOM      7  O   LIG d   1      -4.017  92.045 120.515  0.00  0.00    -0.368 OA
BRANCH   7   8
ATOM      8  C   LIG d   1      -2.735  92.493 121.021  0.00  0.00     0.119 C 
BRANCH   8   9
ATOM      9  C   LIG d   1      -3.012  93.511 122.144  0.00  0.00     0.028 C 
ATOM     10  C   LIG d   1      -2.806  94.964 121.683  0.00  0.00     0.006 C 
ENDBRANCH   8   9
BRANCH   8  11
ATOM     11  C   LIG d   1      -1.955  93.267 119.955  0.00  0.00     0.028 C 
ATOM     12  C   LIG d   1      -0.597  92.626 119.627  0.00  0.00     0.006 C 
ENDBRANCH   8  11
ENDBRANCH   7   8
ENDBRANCH   1   7
BRANCH   6  13
ATOM     13  N   LIG d   1      -3.387  90.768 117.859  0.00  0.00    -0.311 N 
ATOM     14  C   LIG d   1      -2.901  89.645 118.384  0.00  0.00     0.210 C 
ATOM     15  C   LIG d   1      -1.532  89.218 117.843  0.00  0.00     0.109 C 
ATOM     16  O   LIG d   1      -3.487  88.944 119.223  0.00  0.00    -0.276 OA
ATOM     17  H   LIG d   1      -2.860  91.255 117.161  0.00  0.00     0.149 HD
ENDBRANCH   6  13
BRANCH   5  18
ATOM     18  N   LIG d   1      -5.934  90.692 116.173  0.00  0.00     0.381 N 
ATOM     19  H   LIG d   1      -5.348  90.666 115.363  0.00  0.00    -0.090 HD
ATOM     20  H   LIG d   1      -6.881  90.838 115.873  0.00  0.00    -0.090 HD
ATOM     21  H   LIG d   1      -5.865  89.831 116.670  0.00  0.00    -0.090 HD
ENDBRANCH   5  18
BRANCH   3  22
ATOM     22  C   LIG d   1      -7.451  94.559 118.557  0.00  0.00     0.382 C 
ATOM     23  O   LIG d   1      -7.030  95.709 118.827  0.00  0.00    -0.241 OA
ATOM     24  O   LIG d   1      -8.672  94.375 118.393  0.00  0.00    -0.241 OA
ENDBRANCH   3  22
TORSDOF 7
ENDMDL
MODEL 7
REMARK VINA RESULT:      -5.2      2.204      4.686
REMARK  7 active torsions:
REMARK  status: ('A' for Active; 'I' for Inactive)
REMARK    1  A    between atoms: C_2  and  C_3 
REMARK    2  A    between atoms: C_3  and  O_6 
REMARK    3  A    between atoms: C_3  and  C_4 
REMARK    4  A    between atoms: C_7  and  O_6 
REMARK    5  A    between atoms: C_9  and  C_10 
REMARK    6  A    between atoms: N_15  and  C_14 
REMARK    7  A    between atoms: N_20  and  C_19 
REMARK       I    between atoms: C_22  and  N_20 
ROOT
ATOM      1  C   LIG d   1      -5.687  93.062 119.575  0.00  0.00     0.161 C 
ATOM      2  C   LIG d   1      -4.595  92.199 119.385  0.00  0.00     0.016 C 
ATOM      3  C   LIG d   1      -4.444  91.374 118.247  0.00  0.00     0.038 C 
ATOM      4  C   LIG d   1      -5.304  91.470 117.143  0.00  0.00     0.028 C 
ATOM      5  C   LIG d   1      -6.701  91.961 117.504  0.00  0.00    -0.047 C 
ATOM      6  C   LIG d   1      -6.578  93.262 118.331  0.00  0.00     0.091 C 
ENDROOT
BRANCH   1   7
ATOM      7  O   LIG d   1      -5.224  94.335 120.069  0.00  0.00    -0.368 OA
BRANCH   7   8
ATOM      8  C   LIG d   1      -3.820  94.410 120.418  0.00  0.00     0.119 C 
BRANCH   8   9
ATOM      9  C   LIG d   1      -3.733  94.798 121.906  0.00  0.00     0.028 C 
ATOM     10  C   LIG d   1      -3.178  93.658 122.778  0.00  0.00     0.006 C 
ENDBRANCH   8   9
BRANCH   8  11
ATOM     11  C   LIG d   1      -3.118  95.542 119.662  0.00  0.00     0.028 C 
ATOM     12  C   LIG d   1      -1.868  95.067 118.904  0.00  0.00     0.006 C 
ENDBRANCH   8  11
ENDBRANCH   7   8
ENDBRANCH   1   7
BRANCH   6  13
ATOM     13  N   LIG d   1      -7.896  93.765 118.797  0.00  0.00    -0.311 N 
ATOM     14  C   LIG d   1      -8.216  95.057 118.834  0.00  0.00     0.210 C 
ATOM     15  C   LIG d   1      -9.620  95.360 119.367  0.00  0.00     0.109 C 
ATOM     16  O   LIG d   1      -7.483  95.979 118.445  0.00  0.00    -0.276 OA
ATOM     17  H   LIG d   1      -8.563  93.083 119.101  0.00  0.00     0.149 HD
ENDBRANCH   6  13
BRANCH   5  18
ATOM     18  N   LIG d   1      -7.448  92.145 116.245  0.00  0.00     0.381 N 
ATOM     19  H   LIG d   1      -8.422  92.263 116.443  0.00  0.00    -0.090 HD
ATOM     20  H   LIG d   1      -7.339  91.323 115.679  0.00  0.00    -0.090 HD
ATOM     21  H   LIG d   1      -7.103  92.942 115.757  0.00  0.00    -0.090 HD
ENDBRANCH   5  18
BRANCH   3  22
ATOM     22  C   LIG d   1      -3.445  90.413 118.223  0.00  0.00     0.382 C 
ATOM     23  O   LIG d   1      -3.683  89.274 117.753  0.00  0.00    -0.241 OA
ATOM     24  O   LIG d   1      -2.323  90.656 118.705  0.00  0.00    -0.241 OA
ENDBRANCH   3  22
TORSDOF 7
ENDMDL
MODEL 8
REMARK VINA RESULT:      -5.0      1.655      2.495
REMARK  7 active torsions:
REMARK  status: ('A' for Active; 'I' for Inactive)
REMARK    1  A    between atoms: C_2  and  C_3 
REMARK    2  A    between atoms: C_3  and  O_6 
REMARK    3  A    between atoms: C_3  and  C_4 
REMARK    4  A    between atoms: C_7  and  O_6 
REMARK    5  A    between atoms: C_9  and  C_10 
REMARK    6  A    between atoms: N_15  and  C_14 
REMARK    7  A    between atoms: N_20  and  C_19 
REMARK       I    between atoms: C_22  and  N_20 
ROOT
ATOM      1  C   LIG d   1      -3.879  92.932 118.720  0.00  0.00     0.161 C 
ATOM      2  C   LIG d   1      -3.759  93.981 119.647  0.00  0.00     0.016 C 
ATOM      3  C   LIG d   1      -4.853  94.766 120.081  0.00  0.00     0.038 C 
ATOM      4  C   LIG d   1      -6.174  94.454 119.729  0.00  0.00     0.028 C 
ATOM      5  C   LIG d   1      -6.289  93.719 118.398  0.00  0.00    -0.047 C 
ATOM      6  C   LIG d   1      -5.330  92.507 118.410  0.00  0.00     0.091 C 
ENDROOT
BRANCH   1   7
ATOM      7  O   LIG d   1      -3.108  91.798 119.163  0.00  0.00    -0.368 OA
BRANCH   7   8
ATOM      8  C   LIG d   1      -3.818  90.815 119.955  0.00  0.00     0.119 C 
BRANCH   8   9
ATOM      9  C   LIG d   1      -3.303  90.927 121.403  0.00  0.00     0.028 C 
ATOM     10  C   LIG d   1      -1.804  91.267 121.468  0.00  0.00     0.006 C 
ENDBRANCH   8   9
BRANCH   8  11
ATOM     11  C   LIG d   1      -3.475  89.389 119.512  0.00  0.00     0.028 C 
ATOM     12  C   LIG d   1      -2.777  89.342 118.144  0.00  0.00     0.006 C 
ENDBRANCH   8  11
ENDBRANCH   7   8
ENDBRANCH   1   7
BRANCH   6  13
ATOM     13  N   LIG d   1      -5.318  91.780 117.114  0.00  0.00    -0.311 N 
ATOM     14  C   LIG d   1      -6.171  90.803 116.813  0.00  0.00     0.210 C 
ATOM     15  C   LIG d   1      -5.972  90.174 115.430  0.00  0.00     0.109 C 
ATOM     16  O   LIG d   1      -7.094  90.419 117.547  0.00  0.00    -0.276 OA
ATOM     17  H   LIG d   1      -4.621  92.049 116.447  0.00  0.00     0.149 HD
ENDBRANCH   6  13
BRANCH   5  18
ATOM     18  N   LIG d   1      -7.703  93.335 118.222  0.00  0.00     0.381 N 
ATOM     19  H   LIG d   1      -8.128  93.187 119.115  0.00  0.00    -0.090 HD
ATOM     20  H   LIG d   1      -7.744  92.474 117.706  0.00  0.00    -0.090 HD
ATOM     21  H   LIG d   1      -8.191  94.050 117.728  0.00  0.00    -0.090 HD
ENDBRANCH   5  18
BRANCH   3  22
ATOM     22  C   LIG d   1      -4.624  95.900 120.845  0.00  0.00     0.382 C 
ATOM     23  O   LIG d   1      -5.479  96.273 121.684  0.00  0.00    -0.241 OA
ATOM     24  O   LIG d   1      -3.595  96.580 120.674  0.00  0.00    -0.241 OA
ENDBRANCH   3  22
TORSDOF 7
ENDMDL
MODEL 9
REMARK VINA RESULT:      -5.0      2.581      5.695
REMARK  7 active torsions:
REMARK  status: ('A' for Active; 'I' for Inactive)
REMARK    1  A    between atoms: C_2  and  C_3 
REMARK    2  A    between atoms: C_3  and  O_6 
REMARK    3  A    between atoms: C_3  and  C_4 
REMARK    4  A    between atoms: C_7  and  O_6 
REMARK    5  A    between atoms: C_9  and  C_10 
REMARK    6  A    between atoms: N_15  and  C_14 
REMARK    7  A    between atoms: N_20  and  C_19 
REMARK       I    between atoms: C_22  and  N_20 
ROOT
ATOM      1  C   LIG d   1      -3.738  92.261 118.206  0.00  0.00     0.161 C 
ATOM      2  C   LIG d   1      -3.320  90.933 118.018  0.00  0.00     0.016 C 
ATOM      3  C   LIG d   1      -2.074  90.439 118.468  0.00  0.00     0.038 C 
ATOM      4  C   LIG d   1      -1.219  91.205 119.275  0.00  0.00     0.028 C 
ATOM      5  C   LIG d   1      -1.372  92.708 119.062  0.00  0.00    -0.047 C 
ATOM      6  C   LIG d   1      -2.867  93.082 119.181  0.00  0.00     0.091 C 
ENDROOT
BRANCH   1   7
ATOM      7  O   LIG d   1      -5.117  92.284 118.625  0.00  0.00    -0.368 OA
BRANCH   7   8
ATOM      8  C   LIG d   1      -6.100  92.442 117.573  0.00  0.00     0.119 C 
BRANCH   8   9
ATOM      9  C   LIG d   1      -7.123  93.491 118.049  0.00  0.00     0.028 C 
ATOM     10  C   LIG d   1      -6.669  94.216 119.327  0.00  0.00     0.006 C 
ENDBRANCH   8   9
BRANCH   8  11
ATOM     11  C   LIG d   1      -6.905  91.156 117.365  0.00  0.00     0.028 C 
ATOM     12  C   LIG d   1      -6.475  90.380 116.109  0.00  0.00     0.006 C 
ENDBRANCH   8  11
ENDBRANCH   7   8
ENDBRANCH   1   7
BRANCH   6  13
ATOM     13  N   LIG d   1      -3.116  94.520 118.903  0.00  0.00    -0.311 N 
ATOM     14  C   LIG d   1      -3.156  95.454 119.852  0.00  0.00     0.210 C 
ATOM     15  C   LIG d   1      -3.446  96.873 119.352  0.00  0.00     0.109 C 
ATOM     16  O   LIG d   1      -2.949  95.247 121.057  0.00  0.00    -0.276 OA
ATOM     17  H   LIG d   1      -3.264  94.782 117.948  0.00  0.00     0.149 HD
ENDBRANCH   6  13
BRANCH   5  18
ATOM     18  N   LIG d   1      -0.526  93.387 120.061  0.00  0.00     0.381 N 
ATOM     19  H   LIG d   1       0.233  92.791 120.324  0.00  0.00    -0.090 HD
ATOM     20  H   LIG d   1      -1.077  93.577 120.880  0.00  0.00    -0.090 HD
ATOM     21  H   LIG d   1      -0.172  94.240 119.685  0.00  0.00    -0.090 HD
ENDBRANCH   5  18
BRANCH   3  22
ATOM     22  C   LIG d   1      -1.654  89.177 118.077  0.00  0.00     0.382 C 
ATOM     23  O   LIG d   1      -2.349  88.170 118.356  0.00  0.00    -0.241 OA
ATOM     24  O   LIG d   1      -0.566  89.027 117.488  0.00  0.00    -0.241 OA
ENDBRANCH   3  22
TORSDOF 7
ENDMDL
