MODEL 1
REMARK VINA RESULT:      -4.8      0.000      0.000
REMARK  7 active torsions:
REMARK  status: ('A' for Active; 'I' for Inactive)
REMARK    1  A    between atoms: C_2  and  C_3 
REMARK    2  A    between atoms: C_3  and  O_6 
REMARK    3  A    between atoms: C_3  and  C_4 
REMARK    4  A    between atoms: C_7  and  O_6 
REMARK    5  A    between atoms: C_9  and  C_10 
REMARK    6  A    between atoms: N_15  and  C_14 
REMARK    7  A    between atoms: N_20  and  C_19 
REMARK       I    between atoms: C_22  and  N_20 
ROOT
ATOM      1  C   LIG d   1      -1.793  92.342 118.218  0.00  0.00     0.161 C 
ATOM      2  C   LIG d   1      -0.393  92.359 118.103  0.00  0.00     0.016 C 
ATOM      3  C   LIG d   1       0.364  93.548 117.991  0.00  0.00     0.038 C 
ATOM      4  C   LIG d   1      -0.220  94.815 118.139  0.00  0.00     0.028 C 
ATOM      5  C   LIG d   1      -1.694  94.852 117.752  0.00  0.00    -0.047 C 
ATOM      6  C   LIG d   1      -2.436  93.717 118.493  0.00  0.00     0.091 C 
ENDROOT
BRANCH   1   7
ATOM      7  O   LIG d   1      -2.189  91.392 119.227  0.00  0.00    -0.368 OA
BRANCH   7   8
ATOM      8  C   LIG d   1      -2.935  90.241 118.762  0.00  0.00     0.119 C 
BRANCH   8   9
ATOM      9  C   LIG d   1      -2.035  89.003 118.938  0.00  0.00     0.028 C 
ATOM     10  C   LIG d   1      -1.272  88.645 117.652  0.00  0.00     0.006 C 
ENDBRANCH   8   9
BRANCH   8  11
ATOM     11  C   LIG d   1      -3.215  90.329 117.259  0.00  0.00     0.028 C 
ATOM     12  C   LIG d   1      -4.716  90.287 116.929  0.00  0.00     0.006 C 
ENDBRANCH   8  11
ENDBRANCH   7   8
ENDBRANCH   1   7
BRANCH   6  13
ATOM     13  N   LIG d   1      -3.869  93.629 118.106  0.00  0.00    -0.311 N 
ATOM     14  C   LIG d   1      -4.866  93.598 118.988  0.00  0.00     0.210 C 
ATOM     15  C   LIG d   1      -6.266  93.485 118.378  0.00  0.00     0.109 C 
ATOM     16  O   LIG d   1      -4.726  93.685 120.217  0.00  0.00    -0.276 OA
ATOM     17  H   LIG d   1      -4.075  93.585 117.127  0.00  0.00     0.149 HD
ENDBRANCH   6  13
BRANCH   5  18
ATOM     18  N   LIG d   1      -2.209  96.194 118.085  0.00  0.00     0.381 N 
ATOM     19  H   LIG d   1      -1.445  96.822 118.236  0.00  0.00    -0.090 HD
ATOM     20  H   LIG d   1      -2.742  96.136 118.934  0.00  0.00    -0.090 HD
ATOM     21  H   LIG d   1      -2.784  96.532 117.345  0.00  0.00    -0.090 HD
ENDBRANCH   5  18
BRANCH   3  22
ATOM     22  C   LIG d   1       1.715  93.477 117.688  0.00  0.00     0.382 C 
ATOM     23  O   LIG d   1       2.170  94.102 116.700  0.00  0.00    -0.241 OA
ATOM     24  O   LIG d   1       2.477  92.759 118.364  0.00  0.00    -0.241 OA
ENDBRANCH   3  22
TORSDOF 7
ENDMDL
MODEL 2
REMARK VINA RESULT:      -4.8      2.482      5.238
REMARK  7 active torsions:
REMARK  status: ('A' for Active; 'I' for Inactive)
REMARK    1  A    between atoms: C_2  and  C_3 
REMARK    2  A    between atoms: C_3  and  O_6 
REMARK    3  A    between atoms: C_3  and  C_4 
REMARK    4  A    between atoms: C_7  and  O_6 
REMARK    5  A    between atoms: C_9  and  C_10 
REMARK    6  A    between atoms: N_15  and  C_14 
REMARK    7  A    between atoms: N_20  and  C_19 
REMARK       I    between atoms: C_22  and  N_20 
ROOT
ATOM      1  C   LIG d   1      -2.951  90.378 117.861  0.00  0.00     0.161 C 
ATOM      2  C   LIG d   1      -4.026  90.023 117.029  0.00  0.00     0.016 C 
ATOM      3  C   LIG d   1      -5.090  90.900 116.715  0.00  0.00     0.038 C 
ATOM      4  C   LIG d   1      -5.073  92.251 117.094  0.00  0.00     0.028 C 
ATOM      5  C   LIG d   1      -4.260  92.517 118.356  0.00  0.00    -0.047 C 
ATOM      6  C   LIG d   1      -2.859  91.883 118.193  0.00  0.00     0.091 C 
ENDROOT
BRANCH   1   7
ATOM      7  O   LIG d   1      -1.713  89.916 117.285  0.00  0.00    -0.368 OA
BRANCH   7   8
ATOM      8  C   LIG d   1      -1.206  88.657 117.791  0.00  0.00     0.119 C 
BRANCH   8   9
ATOM      9  C   LIG d   1      -1.833  88.429 119.180  0.00  0.00     0.028 C 
ATOM     10  C   LIG d   1      -0.791  88.479 120.310  0.00  0.00     0.006 C 
ENDBRANCH   8   9
BRANCH   8  11
ATOM     11  C   LIG d   1       0.305  88.721 118.034  0.00  0.00     0.028 C 
ATOM     12  C   LIG d   1       0.976  89.893 117.300  0.00  0.00     0.006 C 
ENDBRANCH   8  11
ENDBRANCH   7   8
ENDBRANCH   1   7
BRANCH   6  13
ATOM     13  N   LIG d   1      -2.027  92.024 119.416  0.00  0.00    -0.311 N 
ATOM     14  C   LIG d   1      -0.803  92.548 119.414  0.00  0.00     0.210 C 
ATOM     15  C   LIG d   1      -0.111  92.581 120.780  0.00  0.00     0.109 C 
ATOM     16  O   LIG d   1      -0.237  93.018 118.416  0.00  0.00    -0.276 OA
ATOM     17  H   LIG d   1      -2.422  91.696 120.276  0.00  0.00     0.149 HD
ENDBRANCH   6  13
BRANCH   5  18
ATOM     18  N   LIG d   1      -4.213  93.977 118.557  0.00  0.00     0.381 N 
ATOM     19  H   LIG d   1      -4.689  94.438 117.807  0.00  0.00    -0.090 HD
ATOM     20  H   LIG d   1      -3.254  94.276 118.551  0.00  0.00    -0.090 HD
ATOM     21  H   LIG d   1      -4.638  94.216 119.425  0.00  0.00    -0.090 HD
ENDBRANCH   5  18
BRANCH   3  22
ATOM     22  C   LIG d   1      -6.205  90.416 116.049  0.00  0.00     0.382 C 
ATOM     23  O   LIG d   1      -6.958  91.207 115.431  0.00  0.00    -0.241 OA
ATOM     24  O   LIG d   1      -6.492  89.205 116.094  0.00  0.00    -0.241 OA
ENDBRANCH   3  22
TORSDOF 7
ENDMDL
MODEL 3
REMARK VINA RESULT:      -4.8      2.532      5.044
REMARK  7 active torsions:
REMARK  status: ('A' for Active; 'I' for Inactive)
REMARK    1  A    between atoms: C_2  and  C_3 
REMARK    2  A    between atoms: C_3  and  O_6 
REMARK    3  A    between atoms: C_3  and  C_4 
REMARK    4  A    between atoms: C_7  and  O_6 
REMARK    5  A    between atoms: C_9  and  C_10 
REMARK    6  A    between atoms: N_15  and  C_14 
REMARK    7  A    between atoms: N_20  and  C_19 
REMARK       I    between atoms: C_22  and  N_20 
ROOT
ATOM      1  C   LIG d   1      -3.287  91.458 117.822  0.00  0.00     0.161 C 
ATOM      2  C   LIG d   1      -4.124  90.777 116.923  0.00  0.00     0.016 C 
ATOM      3  C   LIG d   1      -5.409  91.239 116.555  0.00  0.00     0.038 C 
ATOM      4  C   LIG d   1      -5.885  92.499 116.947  0.00  0.00     0.028 C 
ATOM      5  C   LIG d   1      -5.284  92.992 118.258  0.00  0.00    -0.047 C 
ATOM      6  C   LIG d   1      -3.743  92.889 118.174  0.00  0.00     0.091 C 
ENDROOT
BRANCH   1   7
ATOM      7  O   LIG d   1      -1.937  91.473 117.317  0.00  0.00    -0.368 OA
BRANCH   7   8
ATOM      8  C   LIG d   1      -0.967  90.704 118.069  0.00  0.00     0.119 C 
BRANCH   8   9
ATOM      9  C   LIG d   1       0.432  91.086 117.548  0.00  0.00     0.028 C 
ATOM     10  C   LIG d   1       0.980  90.067 116.535  0.00  0.00     0.006 C 
ENDBRANCH   8   9
BRANCH   8  11
ATOM     11  C   LIG d   1      -1.107  89.204 117.791  0.00  0.00     0.028 C 
ATOM     12  C   LIG d   1      -1.524  88.404 119.035  0.00  0.00     0.006 C 
ENDBRANCH   8  11
ENDBRANCH   7   8
ENDBRANCH   1   7
BRANCH   6  13
ATOM     13  N   LIG d   1      -3.079  93.273 119.447  0.00  0.00    -0.311 N 
ATOM     14  C   LIG d   1      -2.617  94.498 119.692  0.00  0.00     0.210 C 
ATOM     15  C   LIG d   1      -1.949  94.675 121.059  0.00  0.00     0.109 C 
ATOM     16  O   LIG d   1      -2.725  95.463 118.920  0.00  0.00    -0.276 OA
ATOM     17  H   LIG d   1      -2.977  92.559 120.141  0.00  0.00     0.149 HD
ENDBRANCH   6  13
BRANCH   5  18
ATOM     18  N   LIG d   1      -5.760  94.371 118.477  0.00  0.00     0.381 N 
ATOM     19  H   LIG d   1      -5.180  95.013 117.974  0.00  0.00    -0.090 HD
ATOM     20  H   LIG d   1      -5.695  94.586 119.456  0.00  0.00    -0.090 HD
ATOM     21  H   LIG d   1      -6.705  94.457 118.173  0.00  0.00    -0.090 HD
ENDBRANCH   5  18
BRANCH   3  22
ATOM     22  C   LIG d   1      -6.249  90.418 115.817  0.00  0.00     0.382 C 
ATOM     23  O   LIG d   1      -5.874  89.264 115.496  0.00  0.00    -0.241 OA
ATOM     24  O   LIG d   1      -7.358  90.833 115.430  0.00  0.00    -0.241 OA
ENDBRANCH   3  22
TORSDOF 7
ENDMDL
MODEL 4
REMARK VINA RESULT:      -4.8      2.282      4.904
REMARK  7 active torsions:
REMARK  status: ('A' for Active; 'I' for Inactive)
REMARK    1  A    between atoms: C_2  and  C_3 
REMARK    2  A    between atoms: C_3  and  O_6 
REMARK    3  A    between atoms: C_3  and  C_4 
REMARK    4  A    between atoms: C_7  and  O_6 
REMARK    5  A    between atoms: C_9  and  C_10 
REMARK    6  A    between atoms: N_15  and  C_14 
REMARK    7  A    between atoms: N_20  and  C_19 
REMARK       I    between atoms: C_22  and  N_20 
ROOT
ATOM      1  C   LIG d   1      -3.316  91.440 118.879  0.00  0.00     0.161 C 
ATOM      2  C   LIG d   1      -3.698  90.535 117.875  0.00  0.00     0.016 C 
ATOM      3  C   LIG d   1      -4.781  90.762 116.994  0.00  0.00     0.038 C 
ATOM      4  C   LIG d   1      -5.466  91.985 116.960  0.00  0.00     0.028 C 
ATOM      5  C   LIG d   1      -5.443  92.729 118.292  0.00  0.00    -0.047 C 
ATOM      6  C   LIG d   1      -3.981  92.829 118.786  0.00  0.00     0.091 C 
ENDROOT
BRANCH   1   7
ATOM      7  O   LIG d   1      -1.881  91.572 118.899  0.00  0.00    -0.368 OA
BRANCH   7   8
ATOM      8  C   LIG d   1      -1.278  92.144 117.713  0.00  0.00     0.119 C 
BRANCH   8   9
ATOM      9  C   LIG d   1      -0.175  91.177 117.241  0.00  0.00     0.028 C 
ATOM     10  C   LIG d   1       1.237  91.698 117.556  0.00  0.00     0.006 C 
ENDBRANCH   8   9
BRANCH   8  11
ATOM     11  C   LIG d   1      -0.556  93.457 118.033  0.00  0.00     0.028 C 
ATOM     12  C   LIG d   1      -1.132  94.656 117.264  0.00  0.00     0.006 C 
ENDBRANCH   8  11
ENDBRANCH   7   8
ENDBRANCH   1   7
BRANCH   6  13
ATOM     13  N   LIG d   1      -3.878  93.469 120.123  0.00  0.00    -0.311 N 
ATOM     14  C   LIG d   1      -3.744  94.782 120.299  0.00  0.00     0.210 C 
ATOM     15  C   LIG d   1      -3.635  95.231 121.760  0.00  0.00     0.109 C 
ATOM     16  O   LIG d   1      -3.739  95.621 119.386  0.00  0.00    -0.276 OA
ATOM     17  H   LIG d   1      -3.905  92.864 120.921  0.00  0.00     0.149 HD
ENDBRANCH   6  13
BRANCH   5  18
ATOM     18  N   LIG d   1      -6.072  94.046 118.077  0.00  0.00     0.381 N 
ATOM     19  H   LIG d   1      -7.067  93.943 118.038  0.00  0.00    -0.090 HD
ATOM     20  H   LIG d   1      -5.758  94.417 117.198  0.00  0.00    -0.090 HD
ATOM     21  H   LIG d   1      -5.824  94.666 118.816  0.00  0.00    -0.090 HD
ENDBRANCH   5  18
BRANCH   3  22
ATOM     22  C   LIG d   1      -5.214  89.741 116.161  0.00  0.00     0.382 C 
ATOM     23  O   LIG d   1      -4.383  88.946 115.659  0.00  0.00    -0.241 OA
ATOM     24  O   LIG d   1      -6.420  89.633 115.870  0.00  0.00    -0.241 OA
ENDBRANCH   3  22
TORSDOF 7
ENDMDL
MODEL 5
REMARK VINA RESULT:      -4.7      2.502      5.082
REMARK  7 active torsions:
REMARK  status: ('A' for Active; 'I' for Inactive)
REMARK    1  A    between atoms: C_2  and  C_3 
REMARK    2  A    between atoms: C_3  and  O_6 
REMARK    3  A    between atoms: C_3  and  C_4 
REMARK    4  A    between atoms: C_7  and  O_6 
REMARK    5  A    between atoms: C_9  and  C_10 
REMARK    6  A    between atoms: N_15  and  C_14 
REMARK    7  A    between atoms: N_20  and  C_19 
REMARK       I    between atoms: C_22  and  N_20 
ROOT
ATOM      1  C   LIG d   1      -3.266  91.426 117.822  0.00  0.00     0.161 C 
ATOM      2  C   LIG d   1      -4.102  90.756 116.914  0.00  0.00     0.016 C 
ATOM      3  C   LIG d   1      -5.381  91.228 116.540  0.00  0.00     0.038 C 
ATOM      4  C   LIG d   1      -5.851  92.489 116.935  0.00  0.00     0.028 C 
ATOM      5  C   LIG d   1      -5.255  92.972 118.253  0.00  0.00    -0.047 C 
ATOM      6  C   LIG d   1      -3.715  92.859 118.178  0.00  0.00     0.091 C 
ENDROOT
BRANCH   1   7
ATOM      7  O   LIG d   1      -1.913  91.434 117.326  0.00  0.00    -0.368 OA
BRANCH   7   8
ATOM      8  C   LIG d   1      -1.093  90.297 117.692  0.00  0.00     0.119 C 
BRANCH   8   9
ATOM      9  C   LIG d   1      -1.457  89.910 119.139  0.00  0.00     0.028 C 
ATOM     10  C   LIG d   1      -1.614  88.391 119.319  0.00  0.00     0.006 C 
ENDBRANCH   8   9
BRANCH   8  11
ATOM     11  C   LIG d   1       0.392  90.670 117.733  0.00  0.00     0.028 C 
ATOM     12  C   LIG d   1       0.624  92.157 118.043  0.00  0.00     0.006 C 
ENDBRANCH   8  11
ENDBRANCH   7   8
ENDBRANCH   1   7
BRANCH   6  13
ATOM     13  N   LIG d   1      -3.057  93.232 119.457  0.00  0.00    -0.311 N 
ATOM     14  C   LIG d   1      -2.122  94.176 119.553  0.00  0.00     0.210 C 
ATOM     15  C   LIG d   1      -1.559  94.389 120.962  0.00  0.00     0.109 C 
ATOM     16  O   LIG d   1      -1.728  94.880 118.610  0.00  0.00    -0.276 OA
ATOM     17  H   LIG d   1      -3.339  92.733 120.278  0.00  0.00     0.149 HD
ENDBRANCH   6  13
BRANCH   5  18
ATOM     18  N   LIG d   1      -5.724  94.353 118.475  0.00  0.00     0.381 N 
ATOM     19  H   LIG d   1      -6.577  94.505 117.976  0.00  0.00    -0.090 HD
ATOM     20  H   LIG d   1      -5.033  94.991 118.121  0.00  0.00    -0.090 HD
ATOM     21  H   LIG d   1      -5.866  94.512 119.448  0.00  0.00    -0.090 HD
ENDBRANCH   5  18
BRANCH   3  22
ATOM     22  C   LIG d   1      -6.221  90.416 115.792  0.00  0.00     0.382 C 
ATOM     23  O   LIG d   1      -7.346  90.840 115.433  0.00  0.00    -0.241 OA
ATOM     24  O   LIG d   1      -5.887  89.250 115.510  0.00  0.00    -0.241 OA
ENDBRANCH   3  22
TORSDOF 7
ENDMDL
MODEL 6
REMARK VINA RESULT:      -4.7      0.701      1.734
REMARK  7 active torsions:
REMARK  status: ('A' for Active; 'I' for Inactive)
REMARK    1  A    between atoms: C_2  and  C_3 
REMARK    2  A    between atoms: C_3  and  O_6 
REMARK    3  A    between atoms: C_3  and  C_4 
REMARK    4  A    between atoms: C_7  and  O_6 
REMARK    5  A    between atoms: C_9  and  C_10 
REMARK    6  A    between atoms: N_15  and  C_14 
REMARK    7  A    between atoms: N_20  and  C_19 
REMARK       I    between atoms: C_22  and  N_20 
ROOT
ATOM      1  C   LIG d   1      -1.567  92.365 117.766  0.00  0.00     0.161 C 
ATOM      2  C   LIG d   1      -0.184  92.610 117.750  0.00  0.00     0.016 C 
ATOM      3  C   LIG d   1       0.386  93.872 118.033  0.00  0.00     0.038 C 
ATOM      4  C   LIG d   1      -0.386  94.946 118.503  0.00  0.00     0.028 C 
ATOM      5  C   LIG d   1      -1.841  94.890 118.050  0.00  0.00    -0.047 C 
ATOM      6  C   LIG d   1      -2.417  93.495 118.385  0.00  0.00     0.091 C 
ENDROOT
BRANCH   1   7
ATOM      7  O   LIG d   1      -1.834  91.115 118.433  0.00  0.00    -0.368 OA
BRANCH   7   8
ATOM      8  C   LIG d   1      -2.227  90.010 117.583  0.00  0.00     0.119 C 
BRANCH   8   9
ATOM      9  C   LIG d   1      -3.767  89.944 117.592  0.00  0.00     0.028 C 
ATOM     10  C   LIG d   1      -4.374  90.192 116.201  0.00  0.00     0.006 C 
ENDBRANCH   8   9
BRANCH   8  11
ATOM     11  C   LIG d   1      -1.760  88.670 118.158  0.00  0.00     0.028 C 
ATOM     12  C   LIG d   1      -1.652  88.685 119.691  0.00  0.00     0.006 C 
ENDBRANCH   8  11
ENDBRANCH   7   8
ENDBRANCH   1   7
BRANCH   6  13
ATOM     13  N   LIG d   1      -3.811  93.326 117.899  0.00  0.00    -0.311 N 
ATOM     14  C   LIG d   1      -4.882  93.476 118.677  0.00  0.00     0.210 C 
ATOM     15  C   LIG d   1      -6.225  93.237 117.981  0.00  0.00     0.109 C 
ATOM     16  O   LIG d   1      -4.848  93.815 119.869  0.00  0.00    -0.276 OA
ATOM     17  H   LIG d   1      -3.932  93.081 116.936  0.00  0.00     0.149 HD
ENDBRANCH   6  13
BRANCH   5  18
ATOM     18  N   LIG d   1      -2.559  95.989 118.722  0.00  0.00     0.381 N 
ATOM     19  H   LIG d   1      -1.993  96.365 119.455  0.00  0.00    -0.090 HD
ATOM     20  H   LIG d   1      -3.403  95.624 119.129  0.00  0.00    -0.090 HD
ATOM     21  H   LIG d   1      -2.781  96.703 118.064  0.00  0.00    -0.090 HD
ENDBRANCH   5  18
BRANCH   3  22
ATOM     22  C   LIG d   1       1.738  94.082 117.809  0.00  0.00     0.382 C 
ATOM     23  O   LIG d   1       2.537  94.110 118.775  0.00  0.00    -0.241 OA
ATOM     24  O   LIG d   1       2.163  94.287 116.656  0.00  0.00    -0.241 OA
ENDBRANCH   3  22
TORSDOF 7
ENDMDL
MODEL 7
REMARK VINA RESULT:      -4.7      2.452      5.108
REMARK  7 active torsions:
REMARK  status: ('A' for Active; 'I' for Inactive)
REMARK    1  A    between atoms: C_2  and  C_3 
REMARK    2  A    between atoms: C_3  and  O_6 
REMARK    3  A    between atoms: C_3  and  C_4 
REMARK    4  A    between atoms: C_7  and  O_6 
REMARK    5  A    between atoms: C_9  and  C_10 
REMARK    6  A    between atoms: N_15  and  C_14 
REMARK    7  A    between atoms: N_20  and  C_19 
REMARK       I    between atoms: C_22  and  N_20 
ROOT
ATOM      1  C   LIG d   1      -2.612  91.635 117.888  0.00  0.00     0.161 C 
ATOM      2  C   LIG d   1      -3.231  90.657 117.093  0.00  0.00     0.016 C 
ATOM      3  C   LIG d   1      -4.577  90.739 116.666  0.00  0.00     0.038 C 
ATOM      4  C   LIG d   1      -5.355  91.886 116.881  0.00  0.00     0.028 C 
ATOM      5  C   LIG d   1      -4.932  92.682 118.112  0.00  0.00    -0.047 C 
ATOM      6  C   LIG d   1      -3.411  92.947 118.040  0.00  0.00     0.091 C 
ENDROOT
BRANCH   1   7
ATOM      7  O   LIG d   1      -1.290  91.910 117.384  0.00  0.00    -0.368 OA
BRANCH   7   8
ATOM      8  C   LIG d   1      -0.206  91.172 118.001  0.00  0.00     0.119 C 
BRANCH   8   9
ATOM      9  C   LIG d   1       0.532  92.138 118.948  0.00  0.00     0.028 C 
ATOM     10  C   LIG d   1       0.185  91.891 120.426  0.00  0.00     0.006 C 
ENDBRANCH   8   9
BRANCH   8  11
ATOM     11  C   LIG d   1       0.836  90.742 116.965  0.00  0.00     0.028 C 
ATOM     12  C   LIG d   1       2.153  91.525 117.086  0.00  0.00     0.006 C 
ENDBRANCH   8  11
ENDBRANCH   7   8
ENDBRANCH   1   7
BRANCH   6  13
ATOM     13  N   LIG d   1      -2.900  93.647 119.247  0.00  0.00    -0.311 N 
ATOM     14  C   LIG d   1      -2.171  94.761 119.195  0.00  0.00     0.210 C 
ATOM     15  C   LIG d   1      -1.729  95.309 120.556  0.00  0.00     0.109 C 
ATOM     16  O   LIG d   1      -1.875  95.364 118.153  0.00  0.00    -0.276 OA
ATOM     17  H   LIG d   1      -3.120  93.243 120.137  0.00  0.00     0.149 HD
ENDBRANCH   6  13
BRANCH   5  18
ATOM     18  N   LIG d   1      -5.734  93.920 118.139  0.00  0.00     0.381 N 
ATOM     19  H   LIG d   1      -5.231  94.639 118.619  0.00  0.00    -0.090 HD
ATOM     20  H   LIG d   1      -6.587  93.744 118.639  0.00  0.00    -0.090 HD
ATOM     21  H   LIG d   1      -5.940  94.213 117.209  0.00  0.00    -0.090 HD
ENDBRANCH   5  18
BRANCH   3  22
ATOM     22  C   LIG d   1      -5.170  89.648 116.049  0.00  0.00     0.382 C 
ATOM     23  O   LIG d   1      -4.462  88.817 115.430  0.00  0.00    -0.241 OA
ATOM     24  O   LIG d   1      -6.407  89.508 116.066  0.00  0.00    -0.241 OA
ENDBRANCH   3  22
TORSDOF 7
ENDMDL
MODEL 8
REMARK VINA RESULT:      -4.6      1.964      5.076
REMARK  7 active torsions:
REMARK  status: ('A' for Active; 'I' for Inactive)
REMARK    1  A    between atoms: C_2  and  C_3 
REMARK    2  A    between atoms: C_3  and  O_6 
REMARK    3  A    between atoms: C_3  and  C_4 
REMARK    4  A    between atoms: C_7  and  O_6 
REMARK    5  A    between atoms: C_9  and  C_10 
REMARK    6  A    between atoms: N_15  and  C_14 
REMARK    7  A    between atoms: N_20  and  C_19 
REMARK       I    between atoms: C_22  and  N_20 
ROOT
ATOM      1  C   LIG d   1      -4.027  92.306 118.506  0.00  0.00     0.161 C 
ATOM      2  C   LIG d   1      -5.342  92.795 118.431  0.00  0.00     0.016 C 
ATOM      3  C   LIG d   1      -5.717  94.087 118.867  0.00  0.00     0.038 C 
ATOM      4  C   LIG d   1      -4.768  95.038 119.271  0.00  0.00     0.028 C 
ATOM      5  C   LIG d   1      -3.495  94.420 119.839  0.00  0.00    -0.047 C 
ATOM      6  C   LIG d   1      -2.959  93.368 118.841  0.00  0.00     0.091 C 
ENDROOT
BRANCH   1   7
ATOM      7  O   LIG d   1      -3.689  91.624 117.282  0.00  0.00    -0.368 OA
BRANCH   7   8
ATOM      8  C   LIG d   1      -3.887  90.188 117.277  0.00  0.00     0.119 C 
BRANCH   8   9
ATOM      9  C   LIG d   1      -2.494  89.529 117.312  0.00  0.00     0.028 C 
ATOM     10  C   LIG d   1      -2.169  88.915 118.684  0.00  0.00     0.006 C 
ENDBRANCH   8   9
BRANCH   8  11
ATOM     11  C   LIG d   1      -4.525  89.718 115.967  0.00  0.00     0.028 C 
ATOM     12  C   LIG d   1      -6.039  89.977 115.915  0.00  0.00     0.006 C 
ENDBRANCH   8  11
ENDBRANCH   7   8
ENDBRANCH   1   7
BRANCH   6  13
ATOM     13  N   LIG d   1      -1.762  92.655 119.356  0.00  0.00    -0.311 N 
ATOM     14  C   LIG d   1      -0.646  92.490 118.649  0.00  0.00     0.210 C 
ATOM     15  C   LIG d   1       0.462  91.708 119.362  0.00  0.00     0.109 C 
ATOM     16  O   LIG d   1      -0.456  92.945 117.511  0.00  0.00    -0.276 OA
ATOM     17  H   LIG d   1      -1.818  92.281 120.284  0.00  0.00     0.149 HD
ENDBRANCH   6  13
BRANCH   5  18
ATOM     18  N   LIG d   1      -2.541  95.517 120.090  0.00  0.00     0.381 N 
ATOM     19  H   LIG d   1      -1.674  95.143 120.421  0.00  0.00    -0.090 HD
ATOM     20  H   LIG d   1      -2.917  96.118 120.802  0.00  0.00    -0.090 HD
ATOM     21  H   LIG d   1      -2.390  96.036 119.253  0.00  0.00    -0.090 HD
ENDBRANCH   5  18
BRANCH   3  22
ATOM     22  C   LIG d   1      -7.060  94.425 118.940  0.00  0.00     0.382 C 
ATOM     23  O   LIG d   1      -7.896  93.832 118.215  0.00  0.00    -0.241 OA
ATOM     24  O   LIG d   1      -7.441  95.345 119.688  0.00  0.00    -0.241 OA
ENDBRANCH   3  22
TORSDOF 7
ENDMDL
MODEL 9
REMARK VINA RESULT:      -4.6      2.728      6.248
REMARK  7 active torsions:
REMARK  status: ('A' for Active; 'I' for Inactive)
REMARK    1  A    between atoms: C_2  and  C_3 
REMARK    2  A    between atoms: C_3  and  O_6 
REMARK    3  A    between atoms: C_3  and  C_4 
REMARK    4  A    between atoms: C_7  and  O_6 
REMARK    5  A    between atoms: C_9  and  C_10 
REMARK    6  A    between atoms: N_15  and  C_14 
REMARK    7  A    between atoms: N_20  and  C_19 
REMARK       I    between atoms: C_22  and  N_20 
ROOT
ATOM      1  C   LIG d   1      -3.801  92.558 117.300  0.00  0.00     0.161 C 
ATOM      2  C   LIG d   1      -5.085  92.165 116.884  0.00  0.00     0.016 C 
ATOM      3  C   LIG d   1      -5.404  90.847 116.484  0.00  0.00     0.038 C 
ATOM      4  C   LIG d   1      -4.491  89.790 116.618  0.00  0.00     0.028 C 
ATOM      5  C   LIG d   1      -3.034  90.237 116.555  0.00  0.00    -0.047 C 
ATOM      6  C   LIG d   1      -2.821  91.395 117.557  0.00  0.00     0.091 C 
ENDROOT
BRANCH   1   7
ATOM      7  O   LIG d   1      -3.901  93.397 118.467  0.00  0.00    -0.368 OA
BRANCH   7   8
ATOM      8  C   LIG d   1      -5.158  93.342 119.186  0.00  0.00     0.119 C 
BRANCH   8   9
ATOM      9  C   LIG d   1      -5.720  94.776 119.246  0.00  0.00     0.028 C 
ATOM     10  C   LIG d   1      -7.255  94.809 119.152  0.00  0.00     0.006 C 
ENDBRANCH   8   9
BRANCH   8  11
ATOM     11  C   LIG d   1      -4.947  92.928 120.645  0.00  0.00     0.028 C 
ATOM     12  C   LIG d   1      -4.638  91.430 120.801  0.00  0.00     0.006 C 
ENDBRANCH   8  11
ENDBRANCH   7   8
ENDBRANCH   1   7
BRANCH   6  13
ATOM     13  N   LIG d   1      -1.442  91.947 117.500  0.00  0.00    -0.311 N 
ATOM     14  C   LIG d   1      -0.587  91.892 118.520  0.00  0.00     0.210 C 
ATOM     15  C   LIG d   1       0.776  92.540 118.256  0.00  0.00     0.109 C 
ATOM     16  O   LIG d   1      -0.817  91.340 119.606  0.00  0.00    -0.276 OA
ATOM     17  H   LIG d   1      -1.162  92.386 116.645  0.00  0.00     0.149 HD
ENDBRANCH   6  13
BRANCH   5  18
ATOM     18  N   LIG d   1      -2.194  89.060 116.845  0.00  0.00     0.381 N 
ATOM     19  H   LIG d   1      -1.584  88.881 116.073  0.00  0.00    -0.090 HD
ATOM     20  H   LIG d   1      -2.789  88.259 116.969  0.00  0.00    -0.090 HD
ATOM     21  H   LIG d   1      -1.660  89.217 117.671  0.00  0.00    -0.090 HD
ENDBRANCH   5  18
BRANCH   3  22
ATOM     22  C   LIG d   1      -6.637  90.584 115.907  0.00  0.00     0.382 C 
ATOM     23  O   LIG d   1      -7.049  89.402 115.821  0.00  0.00    -0.241 OA
ATOM     24  O   LIG d   1      -7.321  91.509 115.430  0.00  0.00    -0.241 OA
ENDBRANCH   3  22
TORSDOF 7
ENDMDL
