MODEL 1
REMARK VINA RESULT:      -5.4      0.000      0.000
REMARK  7 active torsions:
REMARK  status: ('A' for Active; 'I' for Inactive)
REMARK    1  A    between atoms: C_2  and  C_3 
REMARK    2  A    between atoms: C_3  and  O_6 
REMARK    3  A    between atoms: C_3  and  C_4 
REMARK    4  A    between atoms: C_7  and  O_6 
REMARK    5  A    between atoms: C_9  and  C_10 
REMARK    6  A    between atoms: N_15  and  C_14 
REMARK    7  A    between atoms: N_20  and  C_19 
REMARK       I    between atoms: C_22  and  N_20 
ROOT
ATOM      1  C   LIG d   1      -6.301  92.980 118.082  0.00  0.00     0.161 C 
ATOM      2  C   LIG d   1      -6.825  91.831 117.467  0.00  0.00     0.016 C 
ATOM      3  C   LIG d   1      -6.031  90.728 117.074  0.00  0.00     0.038 C 
ATOM      4  C   LIG d   1      -4.672  90.637 117.409  0.00  0.00     0.028 C 
ATOM      5  C   LIG d   1      -3.998  91.993 117.583  0.00  0.00    -0.047 C 
ATOM      6  C   LIG d   1      -4.839  92.850 118.556  0.00  0.00     0.091 C 
ENDROOT
BRANCH   1   7
ATOM      7  O   LIG d   1      -7.150  93.376 119.178  0.00  0.00    -0.368 OA
BRANCH   7   8
ATOM      8  C   LIG d   1      -8.197  94.327 118.862  0.00  0.00     0.119 C 
BRANCH   8   9
ATOM      9  C   LIG d   1      -7.529  95.547 118.199  0.00  0.00     0.028 C 
ATOM     10  C   LIG d   1      -6.965  96.540 119.230  0.00  0.00     0.006 C 
ENDBRANCH   8   9
BRANCH   8  11
ATOM     11  C   LIG d   1      -8.860  94.868 120.132  0.00  0.00     0.028 C 
ATOM     12  C   LIG d   1     -10.182  94.156 120.462  0.00  0.00     0.006 C 
ENDBRANCH   8  11
ENDBRANCH   7   8
ENDBRANCH   1   7
BRANCH   6  13
ATOM     13  N   LIG d   1      -4.295  94.224 118.717  0.00  0.00    -0.311 N 
ATOM     14  C   LIG d   1      -3.468  94.575 119.700  0.00  0.00     0.210 C 
ATOM     15  C   LIG d   1      -3.042  96.047 119.693  0.00  0.00     0.109 C 
ATOM     16  O   LIG d   1      -3.022  93.800 120.559  0.00  0.00    -0.276 OA
ATOM     17  H   LIG d   1      -4.581  94.909 118.045  0.00  0.00     0.149 HD
ENDBRANCH   6  13
BRANCH   5  18
ATOM     18  N   LIG d   1      -2.625  91.751 118.064  0.00  0.00     0.381 N 
ATOM     19  H   LIG d   1      -2.074  91.353 117.330  0.00  0.00    -0.090 HD
ATOM     20  H   LIG d   1      -2.658  91.094 118.824  0.00  0.00    -0.090 HD
ATOM     21  H   LIG d   1      -2.215  92.605 118.371  0.00  0.00    -0.090 HD
ENDBRANCH   5  18
BRANCH   3  22
ATOM     22  C   LIG d   1      -6.589  89.721 116.302  0.00  0.00     0.382 C 
ATOM     23  O   LIG d   1      -7.772  89.358 116.505  0.00  0.00    -0.241 OA
ATOM     24  O   LIG d   1      -5.909  89.139 115.435  0.00  0.00    -0.241 OA
ENDBRANCH   3  22
TORSDOF 7
ENDMDL
MODEL 2
REMARK VINA RESULT:      -5.3      2.109      4.379
REMARK  7 active torsions:
REMARK  status: ('A' for Active; 'I' for Inactive)
REMARK    1  A    between atoms: C_2  and  C_3 
REMARK    2  A    between atoms: C_3  and  O_6 
REMARK    3  A    between atoms: C_3  and  C_4 
REMARK    4  A    between atoms: C_7  and  O_6 
REMARK    5  A    between atoms: C_9  and  C_10 
REMARK    6  A    between atoms: N_15  and  C_14 
REMARK    7  A    between atoms: N_20  and  C_19 
REMARK       I    between atoms: C_22  and  N_20 
ROOT
ATOM      1  C   LIG d   1      -5.368  91.668 119.016  0.00  0.00     0.161 C 
ATOM      2  C   LIG d   1      -5.425  90.732 117.970  0.00  0.00     0.016 C 
ATOM      3  C   LIG d   1      -6.272  90.871 116.846  0.00  0.00     0.038 C 
ATOM      4  C   LIG d   1      -7.013  92.040 116.617  0.00  0.00     0.028 C 
ATOM      5  C   LIG d   1      -7.371  92.791 117.895  0.00  0.00    -0.047 C 
ATOM      6  C   LIG d   1      -6.087  93.003 118.729  0.00  0.00     0.091 C 
ENDROOT
BRANCH   1   7
ATOM      7  O   LIG d   1      -3.995  91.908 119.383  0.00  0.00    -0.368 OA
BRANCH   7   8
ATOM      8  C   LIG d   1      -3.055  92.036 118.287  0.00  0.00     0.119 C 
BRANCH   8   9
ATOM      9  C   LIG d   1      -1.838  91.149 118.615  0.00  0.00     0.028 C 
ATOM     10  C   LIG d   1      -1.811  89.858 117.780  0.00  0.00     0.006 C 
ENDBRANCH   8   9
BRANCH   8  11
ATOM     11  C   LIG d   1      -2.504  93.461 118.189  0.00  0.00     0.028 C 
ATOM     12  C   LIG d   1      -2.642  94.245 119.504  0.00  0.00     0.006 C 
ENDBRANCH   8  11
ENDBRANCH   7   8
ENDBRANCH   1   7
BRANCH   6  13
ATOM     13  N   LIG d   1      -6.361  93.656 120.036  0.00  0.00    -0.311 N 
ATOM     14  C   LIG d   1      -6.255  94.968 120.236  0.00  0.00     0.210 C 
ATOM     15  C   LIG d   1      -6.564  95.432 121.663  0.00  0.00     0.109 C 
ATOM     16  O   LIG d   1      -5.967  95.797 119.359  0.00  0.00    -0.276 OA
ATOM     17  H   LIG d   1      -6.631  93.062 120.795  0.00  0.00     0.149 HD
ENDBRANCH   6  13
BRANCH   5  18
ATOM     18  N   LIG d   1      -8.021  94.055 117.503  0.00  0.00     0.381 N 
ATOM     19  H   LIG d   1      -7.386  94.817 117.634  0.00  0.00    -0.090 HD
ATOM     20  H   LIG d   1      -8.821  94.206 118.091  0.00  0.00    -0.090 HD
ATOM     21  H   LIG d   1      -8.305  94.011 116.549  0.00  0.00    -0.090 HD
ENDBRANCH   5  18
BRANCH   3  22
ATOM     22  C   LIG d   1      -6.413  89.817 115.957  0.00  0.00     0.382 C 
ATOM     23  O   LIG d   1      -7.553  89.490 115.548  0.00  0.00    -0.241 OA
ATOM     24  O   LIG d   1      -5.419  89.160 115.593  0.00  0.00    -0.241 OA
ENDBRANCH   3  22
TORSDOF 7
ENDMDL
MODEL 3
REMARK VINA RESULT:      -5.1      1.933      4.392
REMARK  7 active torsions:
REMARK  status: ('A' for Active; 'I' for Inactive)
REMARK    1  A    between atoms: C_2  and  C_3 
REMARK    2  A    between atoms: C_3  and  O_6 
REMARK    3  A    between atoms: C_3  and  C_4 
REMARK    4  A    between atoms: C_7  and  O_6 
REMARK    5  A    between atoms: C_9  and  C_10 
REMARK    6  A    between atoms: N_15  and  C_14 
REMARK    7  A    between atoms: N_20  and  C_19 
REMARK       I    between atoms: C_22  and  N_20 
ROOT
ATOM      1  C   LIG d   1      -4.695  92.738 118.432  0.00  0.00     0.161 C 
ATOM      2  C   LIG d   1      -4.521  91.572 117.669  0.00  0.00     0.016 C 
ATOM      3  C   LIG d   1      -5.517  91.044 116.816  0.00  0.00     0.038 C 
ATOM      4  C   LIG d   1      -6.710  91.734 116.553  0.00  0.00     0.028 C 
ATOM      5  C   LIG d   1      -7.138  92.658 117.687  0.00  0.00    -0.047 C 
ATOM      6  C   LIG d   1      -5.948  93.565 118.073  0.00  0.00     0.091 C 
ENDROOT
BRANCH   1   7
ATOM      7  O   LIG d   1      -3.513  93.558 118.349  0.00  0.00    -0.368 OA
BRANCH   7   8
ATOM      8  C   LIG d   1      -2.590  93.461 119.463  0.00  0.00     0.119 C 
BRANCH   8   9
ATOM      9  C   LIG d   1      -2.674  94.783 120.250  0.00  0.00     0.028 C 
ATOM     10  C   LIG d   1      -2.968  95.989 119.342  0.00  0.00     0.006 C 
ENDBRANCH   8   9
BRANCH   8  11
ATOM     11  C   LIG d   1      -1.140  93.368 118.978  0.00  0.00     0.028 C 
ATOM     12  C   LIG d   1      -0.791  91.986 118.404  0.00  0.00     0.006 C 
ENDBRANCH   8  11
ENDBRANCH   7   8
ENDBRANCH   1   7
BRANCH   6  13
ATOM     13  N   LIG d   1      -6.255  94.442 119.232  0.00  0.00    -0.311 N 
ATOM     14  C   LIG d   1      -6.858  95.624 119.118  0.00  0.00     0.210 C 
ATOM     15  C   LIG d   1      -7.063  96.377 120.437  0.00  0.00     0.109 C 
ATOM     16  O   LIG d   1      -7.272  96.107 118.053  0.00  0.00    -0.276 OA
ATOM     17  H   LIG d   1      -5.982  94.114 120.138  0.00  0.00     0.149 HD
ENDBRANCH   6  13
BRANCH   5  18
ATOM     18  N   LIG d   1      -8.316  93.415 117.225  0.00  0.00     0.381 N 
ATOM     19  H   LIG d   1      -8.533  94.139 117.881  0.00  0.00    -0.090 HD
ATOM     20  H   LIG d   1      -9.103  92.793 117.171  0.00  0.00    -0.090 HD
ATOM     21  H   LIG d   1      -8.136  93.812 116.329  0.00  0.00    -0.090 HD
ENDBRANCH   5  18
BRANCH   3  22
ATOM     22  C   LIG d   1      -5.342  89.791 116.248  0.00  0.00     0.382 C 
ATOM     23  O   LIG d   1      -6.307  89.215 115.691  0.00  0.00    -0.241 OA
ATOM     24  O   LIG d   1      -4.242  89.211 116.324  0.00  0.00    -0.241 OA
ENDBRANCH   3  22
TORSDOF 7
ENDMDL
MODEL 4
REMARK VINA RESULT:      -4.9      2.634      5.340
REMARK  7 active torsions:
REMARK  status: ('A' for Active; 'I' for Inactive)
REMARK    1  A    between atoms: C_2  and  C_3 
REMARK    2  A    between atoms: C_3  and  O_6 
REMARK    3  A    between atoms: C_3  and  C_4 
REMARK    4  A    between atoms: C_7  and  O_6 
REMARK    5  A    between atoms: C_9  and  C_10 
REMARK    6  A    between atoms: N_15  and  C_14 
REMARK    7  A    between atoms: N_20  and  C_19 
REMARK       I    between atoms: C_22  and  N_20 
ROOT
ATOM      1  C   LIG d   1      -4.312  91.496 118.566  0.00  0.00     0.161 C 
ATOM      2  C   LIG d   1      -5.385  92.399 118.641  0.00  0.00     0.016 C 
ATOM      3  C   LIG d   1      -6.467  92.400 117.730  0.00  0.00     0.038 C 
ATOM      4  C   LIG d   1      -6.625  91.393 116.766  0.00  0.00     0.028 C 
ATOM      5  C   LIG d   1      -5.308  90.759 116.332  0.00  0.00    -0.047 C 
ATOM      6  C   LIG d   1      -4.523  90.321 117.589  0.00  0.00     0.091 C 
ENDROOT
BRANCH   1   7
ATOM      7  O   LIG d   1      -3.996  91.002 119.883  0.00  0.00    -0.368 OA
BRANCH   7   8
ATOM      8  C   LIG d   1      -2.725  91.426 120.435  0.00  0.00     0.119 C 
BRANCH   8   9
ATOM      9  C   LIG d   1      -3.025  92.330 121.647  0.00  0.00     0.028 C 
ATOM     10  C   LIG d   1      -3.016  93.824 121.281  0.00  0.00     0.006 C 
ENDBRANCH   8   9
BRANCH   8  11
ATOM     11  C   LIG d   1      -1.957  92.311 119.449  0.00  0.00     0.028 C 
ATOM     12  C   LIG d   1      -0.592  91.722 119.058  0.00  0.00     0.006 C 
ENDBRANCH   8  11
ENDBRANCH   7   8
ENDBRANCH   1   7
BRANCH   6  13
ATOM     13  N   LIG d   1      -3.184  89.766 117.257  0.00  0.00    -0.311 N 
ATOM     14  C   LIG d   1      -2.672  88.686 117.844  0.00  0.00     0.210 C 
ATOM     15  C   LIG d   1      -1.269  88.295 117.368  0.00  0.00     0.109 C 
ATOM     16  O   LIG d   1      -3.260  87.995 118.690  0.00  0.00    -0.276 OA
ATOM     17  H   LIG d   1      -2.652  90.247 116.559  0.00  0.00     0.149 HD
ENDBRANCH   6  13
BRANCH   5  18
ATOM     18  N   LIG d   1      -5.630  89.636 115.431  0.00  0.00     0.381 N 
ATOM     19  H   LIG d   1      -6.482  89.827 114.943  0.00  0.00    -0.090 HD
ATOM     20  H   LIG d   1      -5.760  88.805 115.981  0.00  0.00    -0.090 HD
ATOM     21  H   LIG d   1      -4.889  89.498 114.779  0.00  0.00    -0.090 HD
ENDBRANCH   5  18
BRANCH   3  22
ATOM     22  C   LIG d   1      -7.384  93.439 117.753  0.00  0.00     0.382 C 
ATOM     23  O   LIG d   1      -8.612  93.193 117.678  0.00  0.00    -0.241 OA
ATOM     24  O   LIG d   1      -6.997  94.622 117.804  0.00  0.00    -0.241 OA
ENDBRANCH   3  22
TORSDOF 7
ENDMDL
MODEL 5
REMARK VINA RESULT:      -4.9      2.330      4.441
REMARK  7 active torsions:
REMARK  status: ('A' for Active; 'I' for Inactive)
REMARK    1  A    between atoms: C_2  and  C_3 
REMARK    2  A    between atoms: C_3  and  O_6 
REMARK    3  A    between atoms: C_3  and  C_4 
REMARK    4  A    between atoms: C_7  and  O_6 
REMARK    5  A    between atoms: C_9  and  C_10 
REMARK    6  A    between atoms: N_15  and  C_14 
REMARK    7  A    between atoms: N_20  and  C_19 
REMARK       I    between atoms: C_22  and  N_20 
ROOT
ATOM      1  C   LIG d   1      -5.203  91.563 118.830  0.00  0.00     0.161 C 
ATOM      2  C   LIG d   1      -5.352  90.633 117.787  0.00  0.00     0.016 C 
ATOM      3  C   LIG d   1      -6.266  90.798 116.722  0.00  0.00     0.038 C 
ATOM      4  C   LIG d   1      -6.992  91.986 116.545  0.00  0.00     0.028 C 
ATOM      5  C   LIG d   1      -7.247  92.739 117.846  0.00  0.00    -0.047 C 
ATOM      6  C   LIG d   1      -5.907  92.916 118.595  0.00  0.00     0.091 C 
ENDROOT
BRANCH   1   7
ATOM      7  O   LIG d   1      -3.804  91.767 119.107  0.00  0.00    -0.368 OA
BRANCH   7   8
ATOM      8  C   LIG d   1      -3.192  90.829 120.026  0.00  0.00     0.119 C 
BRANCH   8   9
ATOM      9  C   LIG d   1      -3.445  91.349 121.455  0.00  0.00     0.028 C 
ATOM     10  C   LIG d   1      -2.708  92.670 121.737  0.00  0.00     0.006 C 
ENDBRANCH   8   9
BRANCH   8  11
ATOM     11  C   LIG d   1      -1.669  90.805 119.867  0.00  0.00     0.028 C 
ATOM     12  C   LIG d   1      -1.222  90.252 118.504  0.00  0.00     0.006 C 
ENDBRANCH   8  11
ENDBRANCH   7   8
ENDBRANCH   1   7
BRANCH   6  13
ATOM     13  N   LIG d   1      -6.079  93.569 119.919  0.00  0.00    -0.311 N 
ATOM     14  C   LIG d   1      -5.440  94.682 120.276  0.00  0.00     0.210 C 
ATOM     15  C   LIG d   1      -5.746  95.177 121.693  0.00  0.00     0.109 C 
ATOM     16  O   LIG d   1      -4.674  95.324 119.542  0.00  0.00    -0.276 OA
ATOM     17  H   LIG d   1      -6.706  93.132 120.565  0.00  0.00     0.149 HD
ENDBRANCH   6  13
BRANCH   5  18
ATOM     18  N   LIG d   1      -7.890  94.021 117.501  0.00  0.00     0.381 N 
ATOM     19  H   LIG d   1      -8.152  94.019 116.535  0.00  0.00    -0.090 HD
ATOM     20  H   LIG d   1      -7.231  94.765 117.648  0.00  0.00    -0.090 HD
ATOM     21  H   LIG d   1      -8.696  94.163 118.070  0.00  0.00    -0.090 HD
ENDBRANCH   5  18
BRANCH   3  22
ATOM     22  C   LIG d   1      -6.491  89.752 115.840  0.00  0.00     0.382 C 
ATOM     23  O   LIG d   1      -7.661  89.471 115.486  0.00  0.00    -0.241 OA
ATOM     24  O   LIG d   1      -5.542  89.057 115.430  0.00  0.00    -0.241 OA
ENDBRANCH   3  22
TORSDOF 7
ENDMDL
MODEL 6
REMARK VINA RESULT:      -4.8      2.959      5.723
REMARK  7 active torsions:
REMARK  status: ('A' for Active; 'I' for Inactive)
REMARK    1  A    between atoms: C_2  and  C_3 
REMARK    2  A    between atoms: C_3  and  O_6 
REMARK    3  A    between atoms: C_3  and  C_4 
REMARK    4  A    between atoms: C_7  and  O_6 
REMARK    5  A    between atoms: C_9  and  C_10 
REMARK    6  A    between atoms: N_15  and  C_14 
REMARK    7  A    between atoms: N_20  and  C_19 
REMARK       I    between atoms: C_22  and  N_20 
ROOT
ATOM      1  C   LIG d   1      -3.397  90.330 118.005  0.00  0.00     0.161 C 
ATOM      2  C   LIG d   1      -4.430  90.010 117.108  0.00  0.00     0.016 C 
ATOM      3  C   LIG d   1      -5.407  90.938 116.683  0.00  0.00     0.038 C 
ATOM      4  C   LIG d   1      -5.328  92.300 117.010  0.00  0.00     0.028 C 
ATOM      5  C   LIG d   1      -4.592  92.567 118.319  0.00  0.00    -0.047 C 
ATOM      6  C   LIG d   1      -3.230  91.838 118.286  0.00  0.00     0.091 C 
ENDROOT
BRANCH   1   7
ATOM      7  O   LIG d   1      -2.155  89.766 117.541  0.00  0.00    -0.368 OA
BRANCH   7   8
ATOM      8  C   LIG d   1      -1.641  88.645 118.302  0.00  0.00     0.119 C 
BRANCH   8   9
ATOM      9  C   LIG d   1      -1.199  87.566 117.295  0.00  0.00     0.028 C 
ATOM     10  C   LIG d   1       0.330  87.406 117.239  0.00  0.00     0.006 C 
ENDBRANCH   8   9
BRANCH   8  11
ATOM     11  C   LIG d   1      -2.741  87.990 119.142  0.00  0.00     0.028 C 
ATOM     12  C   LIG d   1      -2.333  86.613 119.689  0.00  0.00     0.006 C 
ENDBRANCH   8  11
ENDBRANCH   7   8
ENDBRANCH   1   7
BRANCH   6  13
ATOM     13  N   LIG d   1      -2.481  91.977 119.562  0.00  0.00    -0.311 N 
ATOM     14  C   LIG d   1      -1.579  92.932 119.783  0.00  0.00     0.210 C 
ATOM     15  C   LIG d   1      -0.909  92.883 121.159  0.00  0.00     0.109 C 
ATOM     16  O   LIG d   1      -1.294  93.835 118.981  0.00  0.00    -0.276 OA
ATOM     17  H   LIG d   1      -2.673  91.306 120.279  0.00  0.00     0.149 HD
ENDBRANCH   6  13
BRANCH   5  18
ATOM     18  N   LIG d   1      -4.463  94.029 118.468  0.00  0.00     0.381 N 
ATOM     19  H   LIG d   1      -4.729  94.300 119.394  0.00  0.00    -0.090 HD
ATOM     20  H   LIG d   1      -5.083  94.478 117.817  0.00  0.00    -0.090 HD
ATOM     21  H   LIG d   1      -3.524  94.308 118.289  0.00  0.00    -0.090 HD
ENDBRANCH   5  18
BRANCH   3  22
ATOM     22  C   LIG d   1      -6.501  90.499 115.953  0.00  0.00     0.382 C 
ATOM     23  O   LIG d   1      -6.685  89.271 115.777  0.00  0.00    -0.241 OA
ATOM     24  O   LIG d   1      -7.282  91.317 115.430  0.00  0.00    -0.241 OA
ENDBRANCH   3  22
TORSDOF 7
ENDMDL
MODEL 7
REMARK VINA RESULT:      -4.8      2.464      5.478
REMARK  7 active torsions:
REMARK  status: ('A' for Active; 'I' for Inactive)
REMARK    1  A    between atoms: C_2  and  C_3 
REMARK    2  A    between atoms: C_3  and  O_6 
REMARK    3  A    between atoms: C_3  and  C_4 
REMARK    4  A    between atoms: C_7  and  O_6 
REMARK    5  A    between atoms: C_9  and  C_10 
REMARK    6  A    between atoms: N_15  and  C_14 
REMARK    7  A    between atoms: N_20  and  C_19 
REMARK       I    between atoms: C_22  and  N_20 
ROOT
ATOM      1  C   LIG d   1      -4.092  92.617 119.388  0.00  0.00     0.161 C 
ATOM      2  C   LIG d   1      -3.989  94.018 119.398  0.00  0.00     0.016 C 
ATOM      3  C   LIG d   1      -2.854  94.718 118.930  0.00  0.00     0.038 C 
ATOM      4  C   LIG d   1      -1.798  94.067 118.275  0.00  0.00     0.028 C 
ATOM      5  C   LIG d   1      -1.632  92.610 118.696  0.00  0.00    -0.047 C 
ATOM      6  C   LIG d   1      -2.996  91.894 118.576  0.00  0.00     0.091 C 
ENDROOT
BRANCH   1   7
ATOM      7  O   LIG d   1      -5.399  92.226 118.924  0.00  0.00    -0.368 OA
BRANCH   7   8
ATOM      8  C   LIG d   1      -5.533  92.015 117.497  0.00  0.00     0.119 C 
BRANCH   8   9
ATOM      9  C   LIG d   1      -6.543  93.051 116.969  0.00  0.00     0.028 C 
ATOM     10  C   LIG d   1      -7.753  93.221 117.903  0.00  0.00     0.006 C 
ENDBRANCH   8   9
BRANCH   8  11
ATOM     11  C   LIG d   1      -6.155  90.649 117.191  0.00  0.00     0.028 C 
ATOM     12  C   LIG d   1      -5.830  90.150 115.775  0.00  0.00     0.006 C 
ENDBRANCH   8  11
ENDBRANCH   7   8
ENDBRANCH   1   7
BRANCH   6  13
ATOM     13  N   LIG d   1      -2.941  90.486 119.048  0.00  0.00    -0.311 N 
ATOM     14  C   LIG d   1      -2.765  89.446 118.234  0.00  0.00     0.210 C 
ATOM     15  C   LIG d   1      -2.759  88.079 118.925  0.00  0.00     0.109 C 
ATOM     16  O   LIG d   1      -2.581  89.529 117.011  0.00  0.00    -0.276 OA
ATOM     17  H   LIG d   1      -3.050  90.330 120.031  0.00  0.00     0.149 HD
ENDBRANCH   6  13
BRANCH   5  18
ATOM     18  N   LIG d   1      -0.589  92.015 117.839  0.00  0.00     0.381 N 
ATOM     19  H   LIG d   1      -0.788  92.211 116.878  0.00  0.00    -0.090 HD
ATOM     20  H   LIG d   1      -0.594  91.019 117.965  0.00  0.00    -0.090 HD
ATOM     21  H   LIG d   1       0.304  92.384 118.082  0.00  0.00    -0.090 HD
ENDBRANCH   5  18
BRANCH   3  22
ATOM     22  C   LIG d   1      -2.750  96.083 119.151  0.00  0.00     0.382 C 
ATOM     23  O   LIG d   1      -1.620  96.612 119.286  0.00  0.00    -0.241 OA
ATOM     24  O   LIG d   1      -3.773  96.786 119.261  0.00  0.00    -0.241 OA
ENDBRANCH   3  22
TORSDOF 7
ENDMDL
MODEL 8
REMARK VINA RESULT:      -4.7      2.385      4.878
REMARK  7 active torsions:
REMARK  status: ('A' for Active; 'I' for Inactive)
REMARK    1  A    between atoms: C_2  and  C_3 
REMARK    2  A    between atoms: C_3  and  O_6 
REMARK    3  A    between atoms: C_3  and  C_4 
REMARK    4  A    between atoms: C_7  and  O_6 
REMARK    5  A    between atoms: C_9  and  C_10 
REMARK    6  A    between atoms: N_15  and  C_14 
REMARK    7  A    between atoms: N_20  and  C_19 
REMARK       I    between atoms: C_22  and  N_20 
ROOT
ATOM      1  C   LIG d   1      -4.142  91.607 118.516  0.00  0.00     0.161 C 
ATOM      2  C   LIG d   1      -4.521  90.651 117.560  0.00  0.00     0.016 C 
ATOM      3  C   LIG d   1      -5.578  90.846 116.641  0.00  0.00     0.038 C 
ATOM      4  C   LIG d   1      -6.233  92.080 116.516  0.00  0.00     0.028 C 
ATOM      5  C   LIG d   1      -6.223  92.903 117.800  0.00  0.00    -0.047 C 
ATOM      6  C   LIG d   1      -4.772  93.002 118.322  0.00  0.00     0.091 C 
ENDROOT
BRANCH   1   7
ATOM      7  O   LIG d   1      -2.705  91.708 118.562  0.00  0.00    -0.368 OA
BRANCH   7   8
ATOM      8  C   LIG d   1      -2.012  90.638 119.250  0.00  0.00     0.119 C 
BRANCH   8   9
ATOM      9  C   LIG d   1      -2.362  90.746 120.747  0.00  0.00     0.028 C 
ATOM     10  C   LIG d   1      -1.112  90.814 121.639  0.00  0.00     0.006 C 
ENDBRANCH   8   9
BRANCH   8  11
ATOM     11  C   LIG d   1      -0.493  90.818 119.176  0.00  0.00     0.028 C 
ATOM     12  C   LIG d   1       0.045  90.755 117.737  0.00  0.00     0.006 C 
ENDBRANCH   8  11
ENDBRANCH   7   8
ENDBRANCH   1   7
BRANCH   6  13
ATOM     13  N   LIG d   1      -4.684  93.720 119.620  0.00  0.00    -0.311 N 
ATOM     14  C   LIG d   1      -3.853  94.738 119.840  0.00  0.00     0.210 C 
ATOM     15  C   LIG d   1      -3.908  95.323 121.255  0.00  0.00     0.109 C 
ATOM     16  O   LIG d   1      -3.100  95.232 118.988  0.00  0.00    -0.276 OA
ATOM     17  H   LIG d   1      -5.282  93.404 120.358  0.00  0.00     0.149 HD
ENDBRANCH   6  13
BRANCH   5  18
ATOM     18  N   LIG d   1      -6.817  94.218 117.491  0.00  0.00     0.381 N 
ATOM     19  H   LIG d   1      -7.589  94.393 118.102  0.00  0.00    -0.090 HD
ATOM     20  H   LIG d   1      -7.159  94.206 116.546  0.00  0.00    -0.090 HD
ATOM     21  H   LIG d   1      -6.132  94.934 117.595  0.00  0.00    -0.090 HD
ENDBRANCH   5  18
BRANCH   3  22
ATOM     22  C   LIG d   1      -6.016  89.786 115.862  0.00  0.00     0.382 C 
ATOM     23  O   LIG d   1      -7.238  89.655 115.611  0.00  0.00    -0.241 OA
ATOM     24  O   LIG d   1      -5.209  88.934 115.443  0.00  0.00    -0.241 OA
ENDBRANCH   3  22
TORSDOF 7
ENDMDL
MODEL 9
REMARK VINA RESULT:      -4.6      1.963      2.667
REMARK  7 active torsions:
REMARK  status: ('A' for Active; 'I' for Inactive)
REMARK    1  A    between atoms: C_2  and  C_3 
REMARK    2  A    between atoms: C_3  and  O_6 
REMARK    3  A    between atoms: C_3  and  C_4 
REMARK    4  A    between atoms: C_7  and  O_6 
REMARK    5  A    between atoms: C_9  and  C_10 
REMARK    6  A    between atoms: N_15  and  C_14 
REMARK    7  A    between atoms: N_20  and  C_19 
REMARK       I    between atoms: C_22  and  N_20 
ROOT
ATOM      1  C   LIG d   1      -4.198  92.635 117.718  0.00  0.00     0.161 C 
ATOM      2  C   LIG d   1      -5.367  92.116 117.138  0.00  0.00     0.016 C 
ATOM      3  C   LIG d   1      -5.544  90.746 116.837  0.00  0.00     0.038 C 
ATOM      4  C   LIG d   1      -4.617  89.773 117.237  0.00  0.00     0.028 C 
ATOM      5  C   LIG d   1      -3.196  90.309 117.374  0.00  0.00    -0.047 C 
ATOM      6  C   LIG d   1      -3.220  91.573 118.264  0.00  0.00     0.091 C 
ENDROOT
BRANCH   1   7
ATOM      7  O   LIG d   1      -4.542  93.577 118.753  0.00  0.00    -0.368 OA
BRANCH   7   8
ATOM      8  C   LIG d   1      -5.827  93.378 119.394  0.00  0.00     0.119 C 
BRANCH   8   9
ATOM      9  C   LIG d   1      -6.474  94.765 119.574  0.00  0.00     0.028 C 
ATOM     10  C   LIG d   1      -7.221  95.232 118.313  0.00  0.00     0.006 C 
ENDBRANCH   8   9
BRANCH   8  11
ATOM     11  C   LIG d   1      -5.662  92.821 120.811  0.00  0.00     0.028 C 
ATOM     12  C   LIG d   1      -4.598  93.572 121.627  0.00  0.00     0.006 C 
ENDBRANCH   8  11
ENDBRANCH   7   8
ENDBRANCH   1   7
BRANCH   6  13
ATOM     13  N   LIG d   1      -1.883  92.210 118.381  0.00  0.00    -0.311 N 
ATOM     14  C   LIG d   1      -1.230  92.338 119.534  0.00  0.00     0.210 C 
ATOM     15  C   LIG d   1       0.127  93.043 119.435  0.00  0.00     0.109 C 
ATOM     16  O   LIG d   1      -1.630  91.906 120.626  0.00  0.00    -0.276 OA
ATOM     17  H   LIG d   1      -1.470  92.560 117.539  0.00  0.00     0.149 HD
ENDBRANCH   6  13
BRANCH   5  18
ATOM     18  N   LIG d   1      -2.362  89.226 117.929  0.00  0.00     0.381 N 
ATOM     19  H   LIG d   1      -2.847  88.777 118.680  0.00  0.00    -0.090 HD
ATOM     20  H   LIG d   1      -1.514  89.624 118.293  0.00  0.00    -0.090 HD
ATOM     21  H   LIG d   1      -2.148  88.562 117.218  0.00  0.00    -0.090 HD
ENDBRANCH   5  18
BRANCH   3  22
ATOM     22  C   LIG d   1      -6.642  90.343 116.091  0.00  0.00     0.382 C 
ATOM     23  O   LIG d   1      -6.956  89.129 116.043  0.00  0.00    -0.241 OA
ATOM     24  O   LIG d   1      -7.296  91.172 115.431  0.00  0.00    -0.241 OA
ENDBRANCH   3  22
TORSDOF 7
ENDMDL
