MODEL 1
REMARK VINA RESULT:      -5.4      0.000      0.000
REMARK  7 active torsions:
REMARK  status: ('A' for Active; 'I' for Inactive)
REMARK    1  A    between atoms: C_2  and  C_3 
REMARK    2  A    between atoms: C_3  and  O_6 
REMARK    3  A    between atoms: C_3  and  C_4 
REMARK    4  A    between atoms: C_7  and  O_6 
REMARK    5  A    between atoms: C_9  and  C_10 
REMARK    6  A    between atoms: N_15  and  C_14 
REMARK    7  A    between atoms: N_20  and  C_19 
REMARK       I    between atoms: C_22  and  N_20 
ROOT
ATOM      1  C   LIG d   1      -6.245  93.256 117.481  0.00  0.00     0.161 C 
ATOM      2  C   LIG d   1      -6.772  92.086 116.911  0.00  0.00     0.016 C 
ATOM      3  C   LIG d   1      -5.972  91.009 116.465  0.00  0.00     0.038 C 
ATOM      4  C   LIG d   1      -4.590  90.965 116.700  0.00  0.00     0.028 C 
ATOM      5  C   LIG d   1      -3.952  92.345 116.818  0.00  0.00    -0.047 C 
ATOM      6  C   LIG d   1      -4.748  93.180 117.847  0.00  0.00     0.091 C 
ENDROOT
BRANCH   1   7
ATOM      7  O   LIG d   1      -7.024  93.632 118.634  0.00  0.00    -0.368 OA
BRANCH   7   8
ATOM      8  C   LIG d   1      -8.142  94.520 118.386  0.00  0.00     0.119 C 
BRANCH   8   9
ATOM      9  C   LIG d   1      -7.578  95.948 118.254  0.00  0.00     0.028 C 
ATOM     10  C   LIG d   1      -7.267  96.585 119.618  0.00  0.00     0.006 C 
ENDBRANCH   8   9
BRANCH   8  11
ATOM     11  C   LIG d   1      -9.091  94.569 119.587  0.00  0.00     0.028 C 
ATOM     12  C   LIG d   1      -8.936  93.357 120.519  0.00  0.00     0.006 C 
ENDBRANCH   8  11
ENDBRANCH   7   8
ENDBRANCH   1   7
BRANCH   6  13
ATOM     13  N   LIG d   1      -4.241  94.572 117.961  0.00  0.00    -0.311 N 
ATOM     14  C   LIG d   1      -3.902  95.137 119.119  0.00  0.00     0.210 C 
ATOM     15  C   LIG d   1      -3.422  96.588 119.015  0.00  0.00     0.109 C 
ATOM     16  O   LIG d   1      -3.922  94.562 120.218  0.00  0.00    -0.276 OA
ATOM     17  H   LIG d   1      -4.163  95.100 117.114  0.00  0.00     0.149 HD
ENDBRANCH   6  13
BRANCH   5  18
ATOM     18  N   LIG d   1      -2.540  92.152 117.199  0.00  0.00     0.381 N 
ATOM     19  H   LIG d   1      -2.112  91.486 116.588  0.00  0.00    -0.090 HD
ATOM     20  H   LIG d   1      -2.502  91.791 118.136  0.00  0.00    -0.090 HD
ATOM     21  H   LIG d   1      -2.052  93.019 117.150  0.00  0.00    -0.090 HD
ENDBRANCH   5  18
BRANCH   3  22
ATOM     22  C   LIG d   1      -6.550  89.977 115.741  0.00  0.00     0.382 C 
ATOM     23  O   LIG d   1      -7.764  90.032 115.432  0.00  0.00    -0.241 OA
ATOM     24  O   LIG d   1      -5.882  88.972 115.430  0.00  0.00    -0.241 OA
ENDBRANCH   3  22
TORSDOF 7
ENDMDL
MODEL 2
REMARK VINA RESULT:      -5.0      3.579      6.191
REMARK  7 active torsions:
REMARK  status: ('A' for Active; 'I' for Inactive)
REMARK    1  A    between atoms: C_2  and  C_3 
REMARK    2  A    between atoms: C_3  and  O_6 
REMARK    3  A    between atoms: C_3  and  C_4 
REMARK    4  A    between atoms: C_7  and  O_6 
REMARK    5  A    between atoms: C_9  and  C_10 
REMARK    6  A    between atoms: N_15  and  C_14 
REMARK    7  A    between atoms: N_20  and  C_19 
REMARK       I    between atoms: C_22  and  N_20 
ROOT
ATOM      1  C   LIG d   1      -2.567  90.374 117.492  0.00  0.00     0.161 C 
ATOM      2  C   LIG d   1      -3.737  89.965 116.831  0.00  0.00     0.016 C 
ATOM      3  C   LIG d   1      -4.786  90.849 116.486  0.00  0.00     0.038 C 
ATOM      4  C   LIG d   1      -4.667  92.238 116.644  0.00  0.00     0.028 C 
ATOM      5  C   LIG d   1      -3.716  92.640 117.767  0.00  0.00    -0.047 C 
ATOM      6  C   LIG d   1      -2.371  91.902 117.573  0.00  0.00     0.091 C 
ENDROOT
BRANCH   1   7
ATOM      7  O   LIG d   1      -1.419  89.753 116.881  0.00  0.00    -0.368 OA
BRANCH   7   8
ATOM      8  C   LIG d   1      -0.759  88.726 117.660  0.00  0.00     0.119 C 
BRANCH   8   9
ATOM      9  C   LIG d   1       0.745  89.058 117.687  0.00  0.00     0.028 C 
ATOM     10  C   LIG d   1       1.233  89.673 116.364  0.00  0.00     0.006 C 
ENDBRANCH   8   9
BRANCH   8  11
ATOM     11  C   LIG d   1      -0.860  87.358 116.979  0.00  0.00     0.028 C 
ATOM     12  C   LIG d   1      -1.926  86.452 117.616  0.00  0.00     0.006 C 
ENDBRANCH   8  11
ENDBRANCH   7   8
ENDBRANCH   1   7
BRANCH   6  13
ATOM     13  N   LIG d   1      -1.412  92.174 118.675  0.00  0.00    -0.311 N 
ATOM     14  C   LIG d   1      -0.183  92.649 118.477  0.00  0.00     0.210 C 
ATOM     15  C   LIG d   1       0.649  92.839 119.749  0.00  0.00     0.109 C 
ATOM     16  O   LIG d   1       0.285  92.961 117.372  0.00  0.00    -0.276 OA
ATOM     17  H   LIG d   1      -1.721  91.979 119.608  0.00  0.00     0.149 HD
ENDBRANCH   6  13
BRANCH   5  18
ATOM     18  N   LIG d   1      -3.580  94.108 117.731  0.00  0.00     0.381 N 
ATOM     19  H   LIG d   1      -3.498  94.464 118.662  0.00  0.00    -0.090 HD
ATOM     20  H   LIG d   1      -4.406  94.501 117.315  0.00  0.00    -0.090 HD
ATOM     21  H   LIG d   1      -2.778  94.364 117.198  0.00  0.00    -0.090 HD
ENDBRANCH   5  18
BRANCH   3  22
ATOM     22  C   LIG d   1      -5.985  90.340 116.012  0.00  0.00     0.382 C 
ATOM     23  O   LIG d   1      -7.034  91.024 116.099  0.00  0.00    -0.241 OA
ATOM     24  O   LIG d   1      -6.041  89.189 115.539  0.00  0.00    -0.241 OA
ENDBRANCH   3  22
TORSDOF 7
ENDMDL
MODEL 3
REMARK VINA RESULT:      -4.9      3.004      5.253
REMARK  7 active torsions:
REMARK  status: ('A' for Active; 'I' for Inactive)
REMARK    1  A    between atoms: C_2  and  C_3 
REMARK    2  A    between atoms: C_3  and  O_6 
REMARK    3  A    between atoms: C_3  and  C_4 
REMARK    4  A    between atoms: C_7  and  O_6 
REMARK    5  A    between atoms: C_9  and  C_10 
REMARK    6  A    between atoms: N_15  and  C_14 
REMARK    7  A    between atoms: N_20  and  C_19 
REMARK       I    between atoms: C_22  and  N_20 
ROOT
ATOM      1  C   LIG d   1      -3.102  92.318 117.384  0.00  0.00     0.161 C 
ATOM      2  C   LIG d   1      -4.292  93.062 117.309  0.00  0.00     0.016 C 
ATOM      3  C   LIG d   1      -5.476  92.577 116.707  0.00  0.00     0.038 C 
ATOM      4  C   LIG d   1      -5.596  91.249 116.271  0.00  0.00     0.028 C 
ATOM      5  C   LIG d   1      -4.266  90.621 115.870  0.00  0.00    -0.047 C 
ATOM      6  C   LIG d   1      -3.247  90.827 117.014  0.00  0.00     0.091 C 
ENDROOT
BRANCH   1   7
ATOM      7  O   LIG d   1      -2.524  92.454 118.697  0.00  0.00    -0.368 OA
BRANCH   7   8
ATOM      8  C   LIG d   1      -3.068  91.592 119.726  0.00  0.00     0.119 C 
BRANCH   8   9
ATOM      9  C   LIG d   1      -3.801  92.489 120.742  0.00  0.00     0.028 C 
ATOM     10  C   LIG d   1      -5.331  92.360 120.643  0.00  0.00     0.006 C 
ENDBRANCH   8   9
BRANCH   8  11
ATOM     11  C   LIG d   1      -1.956  90.903 120.523  0.00  0.00     0.028 C 
ATOM     12  C   LIG d   1      -0.551  91.374 120.113  0.00  0.00     0.006 C 
ENDBRANCH   8  11
ENDBRANCH   7   8
ENDBRANCH   1   7
BRANCH   6  13
ATOM     13  N   LIG d   1      -1.895  90.317 116.668  0.00  0.00    -0.311 N 
ATOM     14  C   LIG d   1      -1.362  89.225 117.214  0.00  0.00     0.210 C 
ATOM     15  C   LIG d   1       0.052  88.885 116.732  0.00  0.00     0.109 C 
ATOM     16  O   LIG d   1      -1.938  88.488 118.028  0.00  0.00    -0.276 OA
ATOM     17  H   LIG d   1      -1.370  90.837 115.993  0.00  0.00     0.149 HD
ENDBRANCH   6  13
BRANCH   5  18
ATOM     18  N   LIG d   1      -4.517  89.199 115.569  0.00  0.00     0.381 N 
ATOM     19  H   LIG d   1      -3.661  88.684 115.627  0.00  0.00    -0.090 HD
ATOM     20  H   LIG d   1      -4.868  89.122 114.630  0.00  0.00    -0.090 HD
ATOM     21  H   LIG d   1      -5.181  88.827 116.211  0.00  0.00    -0.090 HD
ENDBRANCH   5  18
BRANCH   3  22
ATOM     22  C   LIG d   1      -6.544  93.437 116.500  0.00  0.00     0.382 C 
ATOM     23  O   LIG d   1      -7.199  93.377 115.432  0.00  0.00    -0.241 OA
ATOM     24  O   LIG d   1      -6.832  94.301 117.350  0.00  0.00    -0.241 OA
ENDBRANCH   3  22
TORSDOF 7
ENDMDL
MODEL 4
REMARK VINA RESULT:      -4.9      3.001      5.338
REMARK  7 active torsions:
REMARK  status: ('A' for Active; 'I' for Inactive)
REMARK    1  A    between atoms: C_2  and  C_3 
REMARK    2  A    between atoms: C_3  and  O_6 
REMARK    3  A    between atoms: C_3  and  C_4 
REMARK    4  A    between atoms: C_7  and  O_6 
REMARK    5  A    between atoms: C_9  and  C_10 
REMARK    6  A    between atoms: N_15  and  C_14 
REMARK    7  A    between atoms: N_20  and  C_19 
REMARK       I    between atoms: C_22  and  N_20 
ROOT
ATOM      1  C   LIG d   1      -3.257  92.086 117.461  0.00  0.00     0.161 C 
ATOM      2  C   LIG d   1      -4.494  92.748 117.402  0.00  0.00     0.016 C 
ATOM      3  C   LIG d   1      -5.629  92.219 116.745  0.00  0.00     0.038 C 
ATOM      4  C   LIG d   1      -5.647  90.915 116.229  0.00  0.00     0.028 C 
ATOM      5  C   LIG d   1      -4.268  90.407 115.821  0.00  0.00    -0.047 C 
ATOM      6  C   LIG d   1      -3.288  90.614 116.999  0.00  0.00     0.091 C 
ENDROOT
BRANCH   1   7
ATOM      7  O   LIG d   1      -2.714  92.182 118.792  0.00  0.00    -0.368 OA
BRANCH   7   8
ATOM      8  C   LIG d   1      -1.751  93.241 119.014  0.00  0.00     0.119 C 
BRANCH   8   9
ATOM      9  C   LIG d   1      -0.347  92.608 118.970  0.00  0.00     0.028 C 
ATOM     10  C   LIG d   1       0.365  92.850 117.628  0.00  0.00     0.006 C 
ENDBRANCH   8   9
BRANCH   8  11
ATOM     11  C   LIG d   1      -1.886  93.832 120.420  0.00  0.00     0.028 C 
ATOM     12  C   LIG d   1      -3.171  93.384 121.134  0.00  0.00     0.006 C 
ENDBRANCH   8  11
ENDBRANCH   7   8
ENDBRANCH   1   7
BRANCH   6  13
ATOM     13  N   LIG d   1      -1.897  90.221 116.655  0.00  0.00    -0.311 N 
ATOM     14  C   LIG d   1      -1.147  89.433 117.423  0.00  0.00     0.210 C 
ATOM     15  C   LIG d   1       0.266  89.168 116.892  0.00  0.00     0.109 C 
ATOM     16  O   LIG d   1      -1.528  88.902 118.477  0.00  0.00    -0.276 OA
ATOM     17  H   LIG d   1      -1.519  90.582 115.801  0.00  0.00     0.149 HD
ENDBRANCH   6  13
BRANCH   5  18
ATOM     18  N   LIG d   1      -4.412  88.992 115.430  0.00  0.00     0.381 N 
ATOM     19  H   LIG d   1      -4.440  88.416 116.248  0.00  0.00    -0.090 HD
ATOM     20  H   LIG d   1      -3.613  88.723 114.883  0.00  0.00    -0.090 HD
ATOM     21  H   LIG d   1      -5.245  88.868 114.899  0.00  0.00    -0.090 HD
ENDBRANCH   5  18
BRANCH   3  22
ATOM     22  C   LIG d   1      -6.751  93.014 116.566  0.00  0.00     0.382 C 
ATOM     23  O   LIG d   1      -7.493  93.282 117.542  0.00  0.00    -0.241 OA
ATOM     24  O   LIG d   1      -7.056  93.429 115.432  0.00  0.00    -0.241 OA
ENDBRANCH   3  22
TORSDOF 7
ENDMDL
MODEL 5
REMARK VINA RESULT:      -4.7      2.303      4.462
REMARK  7 active torsions:
REMARK  status: ('A' for Active; 'I' for Inactive)
REMARK    1  A    between atoms: C_2  and  C_3 
REMARK    2  A    between atoms: C_3  and  O_6 
REMARK    3  A    between atoms: C_3  and  C_4 
REMARK    4  A    between atoms: C_7  and  O_6 
REMARK    5  A    between atoms: C_9  and  C_10 
REMARK    6  A    between atoms: N_15  and  C_14 
REMARK    7  A    between atoms: N_20  and  C_19 
REMARK       I    between atoms: C_22  and  N_20 
ROOT
ATOM      1  C   LIG d   1      -4.185  92.228 117.848  0.00  0.00     0.161 C 
ATOM      2  C   LIG d   1      -4.376  91.058 117.094  0.00  0.00     0.016 C 
ATOM      3  C   LIG d   1      -5.496  90.844 116.258  0.00  0.00     0.038 C 
ATOM      4  C   LIG d   1      -6.433  91.856 116.002  0.00  0.00     0.028 C 
ATOM      5  C   LIG d   1      -6.552  92.873 117.132  0.00  0.00    -0.047 C 
ATOM      6  C   LIG d   1      -5.140  93.387 117.495  0.00  0.00     0.091 C 
ENDROOT
BRANCH   1   7
ATOM      7  O   LIG d   1      -2.814  92.659 117.743  0.00  0.00    -0.368 OA
BRANCH   7   8
ATOM      8  C   LIG d   1      -1.906  92.144 118.748  0.00  0.00     0.119 C 
BRANCH   8   9
ATOM      9  C   LIG d   1      -2.061  93.022 120.005  0.00  0.00     0.028 C 
ATOM     10  C   LIG d   1      -2.540  92.219 121.226  0.00  0.00     0.006 C 
ENDBRANCH   8   9
BRANCH   8  11
ATOM     11  C   LIG d   1      -0.446  92.309 118.316  0.00  0.00     0.028 C 
ATOM     12  C   LIG d   1      -0.287  93.215 117.085  0.00  0.00     0.006 C 
ENDBRANCH   8  11
ENDBRANCH   7   8
ENDBRANCH   1   7
BRANCH   6  13
ATOM     13  N   LIG d   1      -5.157  94.323 118.649  0.00  0.00    -0.311 N 
ATOM     14  C   LIG d   1      -5.622  93.994 119.853  0.00  0.00     0.210 C 
ATOM     15  C   LIG d   1      -5.566  95.114 120.897  0.00  0.00     0.109 C 
ATOM     16  O   LIG d   1      -6.046  92.871 120.165  0.00  0.00    -0.276 OA
ATOM     17  H   LIG d   1      -4.803  95.246 118.493  0.00  0.00     0.149 HD
ENDBRANCH   6  13
BRANCH   5  18
ATOM     18  N   LIG d   1      -7.458  93.943 116.676  0.00  0.00     0.381 N 
ATOM     19  H   LIG d   1      -8.200  93.550 116.132  0.00  0.00    -0.090 HD
ATOM     20  H   LIG d   1      -6.942  94.579 116.093  0.00  0.00    -0.090 HD
ATOM     21  H   LIG d   1      -7.834  94.430 117.460  0.00  0.00    -0.090 HD
ENDBRANCH   5  18
BRANCH   3  22
ATOM     22  C   LIG d   1      -5.709  89.593 115.700  0.00  0.00     0.382 C 
ATOM     23  O   LIG d   1      -6.879  89.185 115.503  0.00  0.00    -0.241 OA
ATOM     24  O   LIG d   1      -4.746  88.849 115.432  0.00  0.00    -0.241 OA
ENDBRANCH   3  22
TORSDOF 7
ENDMDL
MODEL 6
REMARK VINA RESULT:      -4.7      2.511      3.845
REMARK  7 active torsions:
REMARK  status: ('A' for Active; 'I' for Inactive)
REMARK    1  A    between atoms: C_2  and  C_3 
REMARK    2  A    between atoms: C_3  and  O_6 
REMARK    3  A    between atoms: C_3  and  C_4 
REMARK    4  A    between atoms: C_7  and  O_6 
REMARK    5  A    between atoms: C_9  and  C_10 
REMARK    6  A    between atoms: N_15  and  C_14 
REMARK    7  A    between atoms: N_20  and  C_19 
REMARK       I    between atoms: C_22  and  N_20 
ROOT
ATOM      1  C   LIG d   1      -3.517  92.629 117.077  0.00  0.00     0.161 C 
ATOM      2  C   LIG d   1      -4.776  92.130 116.704  0.00  0.00     0.016 C 
ATOM      3  C   LIG d   1      -5.029  90.761 116.458  0.00  0.00     0.038 C 
ATOM      4  C   LIG d   1      -4.068  89.772 116.716  0.00  0.00     0.028 C 
ATOM      5  C   LIG d   1      -2.633  90.278 116.609  0.00  0.00    -0.047 C 
ATOM      6  C   LIG d   1      -2.485  91.552 117.471  0.00  0.00     0.091 C 
ENDROOT
BRANCH   1   7
ATOM      7  O   LIG d   1      -3.668  93.592 118.140  0.00  0.00    -0.368 OA
BRANCH   7   8
ATOM      8  C   LIG d   1      -3.790  93.049 119.478  0.00  0.00     0.119 C 
BRANCH   8   9
ATOM      9  C   LIG d   1      -5.151  93.505 120.039  0.00  0.00     0.028 C 
ATOM     10  C   LIG d   1      -6.154  92.345 120.159  0.00  0.00     0.006 C 
ENDBRANCH   8   9
BRANCH   8  11
ATOM     11  C   LIG d   1      -2.742  93.649 120.419  0.00  0.00     0.028 C 
ATOM     12  C   LIG d   1      -2.955  95.151 120.669  0.00  0.00     0.006 C 
ENDBRANCH   8  11
ENDBRANCH   7   8
ENDBRANCH   1   7
BRANCH   6  13
ATOM     13  N   LIG d   1      -1.134  92.161 117.357  0.00  0.00    -0.311 N 
ATOM     14  C   LIG d   1      -0.141  91.906 118.207  0.00  0.00     0.210 C 
ATOM     15  C   LIG d   1       1.165  92.654 117.919  0.00  0.00     0.109 C 
ATOM     16  O   LIG d   1      -0.207  91.107 119.153  0.00  0.00    -0.276 OA
ATOM     17  H   LIG d   1      -0.983  92.797 116.599  0.00  0.00     0.149 HD
ENDBRANCH   6  13
BRANCH   5  18
ATOM     18  N   LIG d   1      -1.741  89.184 117.036  0.00  0.00     0.381 N 
ATOM     19  H   LIG d   1      -0.787  89.467 116.940  0.00  0.00    -0.090 HD
ATOM     20  H   LIG d   1      -1.896  88.388 116.443  0.00  0.00    -0.090 HD
ATOM     21  H   LIG d   1      -1.929  88.941 117.984  0.00  0.00    -0.090 HD
ENDBRANCH   5  18
BRANCH   3  22
ATOM     22  C   LIG d   1      -6.242  90.373 115.909  0.00  0.00     0.382 C 
ATOM     23  O   LIG d   1      -7.169  91.209 115.785  0.00  0.00    -0.241 OA
ATOM     24  O   LIG d   1      -6.435  89.189 115.577  0.00  0.00    -0.241 OA
ENDBRANCH   3  22
TORSDOF 7
ENDMDL
MODEL 7
REMARK VINA RESULT:      -4.6      2.000      4.975
REMARK  7 active torsions:
REMARK  status: ('A' for Active; 'I' for Inactive)
REMARK    1  A    between atoms: C_2  and  C_3 
REMARK    2  A    between atoms: C_3  and  O_6 
REMARK    3  A    between atoms: C_3  and  C_4 
REMARK    4  A    between atoms: C_7  and  O_6 
REMARK    5  A    between atoms: C_9  and  C_10 
REMARK    6  A    between atoms: N_15  and  C_14 
REMARK    7  A    between atoms: N_20  and  C_19 
REMARK       I    between atoms: C_22  and  N_20 
ROOT
ATOM      1  C   LIG d   1      -5.570  92.425 118.765  0.00  0.00     0.161 C 
ATOM      2  C   LIG d   1      -6.858  92.985 118.728  0.00  0.00     0.016 C 
ATOM      3  C   LIG d   1      -7.099  94.377 118.657  0.00  0.00     0.038 C 
ATOM      4  C   LIG d   1      -6.061  95.300 118.464  0.00  0.00     0.028 C 
ATOM      5  C   LIG d   1      -4.717  94.822 119.002  0.00  0.00    -0.047 C 
ATOM      6  C   LIG d   1      -4.427  93.410 118.443  0.00  0.00     0.091 C 
ENDROOT
BRANCH   1   7
ATOM      7  O   LIG d   1      -5.509  91.283 117.887  0.00  0.00    -0.368 OA
BRANCH   7   8
ATOM      8  C   LIG d   1      -5.121  91.552 116.518  0.00  0.00     0.119 C 
BRANCH   8   9
ATOM      9  C   LIG d   1      -6.374  91.378 115.638  0.00  0.00     0.028 C 
ATOM     10  C   LIG d   1      -6.938  89.948 115.697  0.00  0.00     0.006 C 
ENDBRANCH   8   9
BRANCH   8  11
ATOM     11  C   LIG d   1      -4.120  90.511 116.008  0.00  0.00     0.028 C 
ATOM     12  C   LIG d   1      -3.414  89.755 117.145  0.00  0.00     0.006 C 
ENDBRANCH   8  11
ENDBRANCH   7   8
ENDBRANCH   1   7
BRANCH   6  13
ATOM     13  N   LIG d   1      -3.170  92.832 118.986  0.00  0.00    -0.311 N 
ATOM     14  C   LIG d   1      -1.994  92.920 118.366  0.00  0.00     0.210 C 
ATOM     15  C   LIG d   1      -0.829  92.239 119.089  0.00  0.00     0.109 C 
ATOM     16  O   LIG d   1      -1.801  93.525 117.301  0.00  0.00    -0.276 OA
ATOM     17  H   LIG d   1      -3.230  92.351 119.862  0.00  0.00     0.149 HD
ENDBRANCH   6  13
BRANCH   5  18
ATOM     18  N   LIG d   1      -3.701  95.818 118.613  0.00  0.00     0.381 N 
ATOM     19  H   LIG d   1      -3.024  95.915 119.343  0.00  0.00    -0.090 HD
ATOM     20  H   LIG d   1      -4.151  96.706 118.480  0.00  0.00    -0.090 HD
ATOM     21  H   LIG d   1      -3.252  95.535 117.769  0.00  0.00    -0.090 HD
ENDBRANCH   5  18
BRANCH   3  22
ATOM     22  C   LIG d   1      -8.389  94.860 118.820  0.00  0.00     0.382 C 
ATOM     23  O   LIG d   1      -8.599  96.096 118.823  0.00  0.00    -0.241 OA
ATOM     24  O   LIG d   1      -9.338  94.075 119.008  0.00  0.00    -0.241 OA
ENDBRANCH   3  22
TORSDOF 7
ENDMDL
MODEL 8
REMARK VINA RESULT:      -4.5      2.434      4.013
REMARK  7 active torsions:
REMARK  status: ('A' for Active; 'I' for Inactive)
REMARK    1  A    between atoms: C_2  and  C_3 
REMARK    2  A    between atoms: C_3  and  O_6 
REMARK    3  A    between atoms: C_3  and  C_4 
REMARK    4  A    between atoms: C_7  and  O_6 
REMARK    5  A    between atoms: C_9  and  C_10 
REMARK    6  A    between atoms: N_15  and  C_14 
REMARK    7  A    between atoms: N_20  and  C_19 
REMARK       I    between atoms: C_22  and  N_20 
ROOT
ATOM      1  C   LIG d   1      -3.442  92.384 117.023  0.00  0.00     0.161 C 
ATOM      2  C   LIG d   1      -3.103  91.022 116.973  0.00  0.00     0.016 C 
ATOM      3  C   LIG d   1      -2.612  90.301 118.085  0.00  0.00     0.038 C 
ATOM      4  C   LIG d   1      -2.570  90.860 119.371  0.00  0.00     0.028 C 
ATOM      5  C   LIG d   1      -2.426  92.378 119.367  0.00  0.00    -0.047 C 
ATOM      6  C   LIG d   1      -3.508  92.983 118.443  0.00  0.00     0.091 C 
ENDROOT
BRANCH   1   7
ATOM      7  O   LIG d   1      -4.686  92.604 116.328  0.00  0.00    -0.368 OA
BRANCH   7   8
ATOM      8  C   LIG d   1      -5.793  91.754 116.719  0.00  0.00     0.119 C 
BRANCH   8   9
ATOM      9  C   LIG d   1      -6.425  91.195 115.430  0.00  0.00     0.028 C 
ATOM     10  C   LIG d   1      -7.095  89.828 115.650  0.00  0.00     0.006 C 
ENDBRANCH   8   9
BRANCH   8  11
ATOM     11  C   LIG d   1      -6.903  92.563 117.398  0.00  0.00     0.028 C 
ATOM     12  C   LIG d   1      -6.900  94.043 116.985  0.00  0.00     0.006 C 
ENDBRANCH   8  11
ENDBRANCH   7   8
ENDBRANCH   1   7
BRANCH   6  13
ATOM     13  N   LIG d   1      -3.386  94.458 118.316  0.00  0.00    -0.311 N 
ATOM     14  C   LIG d   1      -4.028  95.318 119.105  0.00  0.00     0.210 C 
ATOM     15  C   LIG d   1      -3.777  96.796 118.790  0.00  0.00     0.109 C 
ATOM     16  O   LIG d   1      -4.757  94.997 120.056  0.00  0.00    -0.276 OA
ATOM     17  H   LIG d   1      -2.790  94.805 117.590  0.00  0.00     0.149 HD
ENDBRANCH   6  13
BRANCH   5  18
ATOM     18  N   LIG d   1      -2.535  92.840 120.764  0.00  0.00     0.381 N 
ATOM     19  H   LIG d   1      -3.486  92.778 121.068  0.00  0.00    -0.090 HD
ATOM     20  H   LIG d   1      -2.251  93.803 120.811  0.00  0.00    -0.090 HD
ATOM     21  H   LIG d   1      -1.954  92.285 121.353  0.00  0.00    -0.090 HD
ENDBRANCH   5  18
BRANCH   3  22
ATOM     22  C   LIG d   1      -2.119  89.017 117.909  0.00  0.00     0.382 C 
ATOM     23  O   LIG d   1      -0.903  88.780 118.107  0.00  0.00    -0.241 OA
ATOM     24  O   LIG d   1      -2.866  88.103 117.512  0.00  0.00    -0.241 OA
ENDBRANCH   3  22
TORSDOF 7
ENDMDL
MODEL 9
REMARK VINA RESULT:      -4.4      2.312      4.002
REMARK  7 active torsions:
REMARK  status: ('A' for Active; 'I' for Inactive)
REMARK    1  A    between atoms: C_2  and  C_3 
REMARK    2  A    between atoms: C_3  and  O_6 
REMARK    3  A    between atoms: C_3  and  C_4 
REMARK    4  A    between atoms: C_7  and  O_6 
REMARK    5  A    between atoms: C_9  and  C_10 
REMARK    6  A    between atoms: N_15  and  C_14 
REMARK    7  A    between atoms: N_20  and  C_19 
REMARK       I    between atoms: C_22  and  N_20 
ROOT
ATOM      1  C   LIG d   1      -4.839  92.391 119.398  0.00  0.00     0.161 C 
ATOM      2  C   LIG d   1      -3.687  91.768 118.890  0.00  0.00     0.016 C 
ATOM      3  C   LIG d   1      -3.648  91.100 117.645  0.00  0.00     0.038 C 
ATOM      4  C   LIG d   1      -4.725  91.140 116.748  0.00  0.00     0.028 C 
ATOM      5  C   LIG d   1      -6.076  91.326 117.432  0.00  0.00    -0.047 C 
ATOM      6  C   LIG d   1      -5.993  92.540 118.384  0.00  0.00     0.091 C 
ENDROOT
BRANCH   1   7
ATOM      7  O   LIG d   1      -4.495  93.673 119.958  0.00  0.00    -0.368 OA
BRANCH   7   8
ATOM      8  C   LIG d   1      -4.728  94.823 119.109  0.00  0.00     0.119 C 
BRANCH   8   9
ATOM      9  C   LIG d   1      -3.363  95.489 118.847  0.00  0.00     0.028 C 
ATOM     10  C   LIG d   1      -3.396  97.008 119.084  0.00  0.00     0.006 C 
ENDBRANCH   8   9
BRANCH   8  11
ATOM     11  C   LIG d   1      -5.566  95.885 119.826  0.00  0.00     0.028 C 
ATOM     12  C   LIG d   1      -6.078  95.415 121.196  0.00  0.00     0.006 C 
ENDBRANCH   8  11
ENDBRANCH   7   8
ENDBRANCH   1   7
BRANCH   6  13
ATOM     13  N   LIG d   1      -7.247  92.742 119.156  0.00  0.00    -0.311 N 
ATOM     14  C   LIG d   1      -8.246  93.518 118.742  0.00  0.00     0.210 C 
ATOM     15  C   LIG d   1      -9.439  93.603 119.699  0.00  0.00     0.109 C 
ATOM     16  O   LIG d   1      -8.272  94.120 117.658  0.00  0.00    -0.276 OA
ATOM     17  H   LIG d   1      -7.323  92.266 120.034  0.00  0.00     0.149 HD
ENDBRANCH   6  13
BRANCH   5  18
ATOM     18  N   LIG d   1      -7.092  91.488 116.374  0.00  0.00     0.381 N 
ATOM     19  H   LIG d   1      -7.276  90.605 115.943  0.00  0.00    -0.090 HD
ATOM     20  H   LIG d   1      -6.734  92.113 115.673  0.00  0.00    -0.090 HD
ATOM     21  H   LIG d   1      -7.931  91.859 116.762  0.00  0.00    -0.090 HD
ENDBRANCH   5  18
BRANCH   3  22
ATOM     22  C   LIG d   1      -2.534  90.348 117.303  0.00  0.00     0.382 C 
ATOM     23  O   LIG d   1      -2.626  89.101 117.201  0.00  0.00    -0.241 OA
ATOM     24  O   LIG d   1      -1.428  90.896 117.139  0.00  0.00    -0.241 OA
ENDBRANCH   3  22
TORSDOF 7
ENDMDL
