MODEL 1
REMARK VINA RESULT:      -5.1      0.000      0.000
REMARK  7 active torsions:
REMARK  status: ('A' for Active; 'I' for Inactive)
REMARK    1  A    between atoms: C_2  and  C_3 
REMARK    2  A    between atoms: C_3  and  O_6 
REMARK    3  A    between atoms: C_3  and  C_4 
REMARK    4  A    between atoms: C_7  and  O_6 
REMARK    5  A    between atoms: C_9  and  C_10 
REMARK    6  A    between atoms: N_15  and  C_14 
REMARK    7  A    between atoms: N_20  and  C_19 
REMARK       I    between atoms: C_22  and  N_20 
ROOT
ATOM      1  C   LIG d   1      -5.557  93.409 118.300  0.00  0.00     0.161 C 
ATOM      2  C   LIG d   1      -6.282  92.350 117.729  0.00  0.00     0.016 C 
ATOM      3  C   LIG d   1      -5.678  91.287 117.018  0.00  0.00     0.038 C 
ATOM      4  C   LIG d   1      -4.285  91.132 116.958  0.00  0.00     0.028 C 
ATOM      5  C   LIG d   1      -3.523  92.447 117.088  0.00  0.00    -0.047 C 
ATOM      6  C   LIG d   1      -4.029  93.198 118.341  0.00  0.00     0.091 C 
ENDROOT
BRANCH   1   7
ATOM      7  O   LIG d   1      -6.059  93.689 119.621  0.00  0.00    -0.368 OA
BRANCH   7   8
ATOM      8  C   LIG d   1      -6.669  94.990 119.809  0.00  0.00     0.119 C 
BRANCH   8   9
ATOM      9  C   LIG d   1      -8.099  94.760 120.334  0.00  0.00     0.028 C 
ATOM     10  C   LIG d   1      -8.280  93.362 120.950  0.00  0.00     0.006 C 
ENDBRANCH   8   9
BRANCH   8  11
ATOM     11  C   LIG d   1      -6.840  95.723 118.475  0.00  0.00     0.028 C 
ATOM     12  C   LIG d   1      -8.312  96.002 118.133  0.00  0.00     0.006 C 
ENDBRANCH   8  11
ENDBRANCH   7   8
ENDBRANCH   1   7
BRANCH   6  13
ATOM     13  N   LIG d   1      -3.395  94.534 118.494  0.00  0.00    -0.311 N 
ATOM     14  C   LIG d   1      -2.795  94.936 119.614  0.00  0.00     0.210 C 
ATOM     15  C   LIG d   1      -2.224  96.357 119.567  0.00  0.00     0.109 C 
ATOM     16  O   LIG d   1      -2.653  94.239 120.630  0.00  0.00    -0.276 OA
ATOM     17  H   LIG d   1      -3.436  95.152 117.708  0.00  0.00     0.149 HD
ENDBRANCH   6  13
BRANCH   5  18
ATOM     18  N   LIG d   1      -2.085  92.124 117.148  0.00  0.00     0.381 N 
ATOM     19  H   LIG d   1      -1.679  92.540 117.962  0.00  0.00    -0.090 HD
ATOM     20  H   LIG d   1      -1.632  92.509 116.338  0.00  0.00    -0.090 HD
ATOM     21  H   LIG d   1      -1.958  91.136 117.171  0.00  0.00    -0.090 HD
ENDBRANCH   5  18
BRANCH   3  22
ATOM     22  C   LIG d   1      -6.472  90.388 116.323  0.00  0.00     0.382 C 
ATOM     23  O   LIG d   1      -5.946  89.573 115.526  0.00  0.00    -0.241 OA
ATOM     24  O   LIG d   1      -7.711  90.409 116.449  0.00  0.00    -0.241 OA
ENDBRANCH   3  22
TORSDOF 7
ENDMDL
MODEL 2
REMARK VINA RESULT:      -5.0      3.177      5.778
REMARK  7 active torsions:
REMARK  status: ('A' for Active; 'I' for Inactive)
REMARK    1  A    between atoms: C_2  and  C_3 
REMARK    2  A    between atoms: C_3  and  O_6 
REMARK    3  A    between atoms: C_3  and  C_4 
REMARK    4  A    between atoms: C_7  and  O_6 
REMARK    5  A    between atoms: C_9  and  C_10 
REMARK    6  A    between atoms: N_15  and  C_14 
REMARK    7  A    between atoms: N_20  and  C_19 
REMARK       I    between atoms: C_22  and  N_20 
ROOT
ATOM      1  C   LIG d   1      -3.037  90.305 117.247  0.00  0.00     0.161 C 
ATOM      2  C   LIG d   1      -4.259  90.121 116.579  0.00  0.00     0.016 C 
ATOM      3  C   LIG d   1      -5.225  91.143 116.428  0.00  0.00     0.038 C 
ATOM      4  C   LIG d   1      -4.967  92.469 116.806  0.00  0.00     0.028 C 
ATOM      5  C   LIG d   1      -3.950  92.590 117.936  0.00  0.00    -0.047 C 
ATOM      6  C   LIG d   1      -2.690  91.774 117.568  0.00  0.00     0.091 C 
ENDROOT
BRANCH   1   7
ATOM      7  O   LIG d   1      -1.972  89.692 116.493  0.00  0.00    -0.368 OA
BRANCH   7   8
ATOM      8  C   LIG d   1      -1.688  88.306 116.803  0.00  0.00     0.119 C 
BRANCH   8   9
ATOM      9  C   LIG d   1      -1.821  88.135 118.329  0.00  0.00     0.028 C 
ATOM     10  C   LIG d   1      -1.167  86.838 118.833  0.00  0.00     0.006 C 
ENDBRANCH   8   9
BRANCH   8  11
ATOM     11  C   LIG d   1      -0.235  87.948 116.479  0.00  0.00     0.028 C 
ATOM     12  C   LIG d   1       0.717  89.148 116.607  0.00  0.00     0.006 C 
ENDBRANCH   8  11
ENDBRANCH   7   8
ENDBRANCH   1   7
BRANCH   6  13
ATOM     13  N   LIG d   1      -1.679  91.770 118.657  0.00  0.00    -0.311 N 
ATOM     14  C   LIG d   1      -0.414  92.149 118.484  0.00  0.00     0.210 C 
ATOM     15  C   LIG d   1       0.468  92.048 119.733  0.00  0.00     0.109 C 
ATOM     16  O   LIG d   1       0.054  92.588 117.423  0.00  0.00    -0.276 OA
ATOM     17  H   LIG d   1      -1.981  91.457 119.558  0.00  0.00     0.149 HD
ENDBRANCH   6  13
BRANCH   5  18
ATOM     18  N   LIG d   1      -3.673  94.025 118.135  0.00  0.00     0.381 N 
ATOM     19  H   LIG d   1      -2.692  94.196 118.041  0.00  0.00    -0.090 HD
ATOM     20  H   LIG d   1      -3.951  94.284 119.065  0.00  0.00    -0.090 HD
ATOM     21  H   LIG d   1      -4.177  94.565 117.466  0.00  0.00    -0.090 HD
ENDBRANCH   5  18
BRANCH   3  22
ATOM     22  C   LIG d   1      -6.481  90.832 115.930  0.00  0.00     0.382 C 
ATOM     23  O   LIG d   1      -7.276  91.751 115.617  0.00  0.00    -0.241 OA
ATOM     24  O   LIG d   1      -6.846  89.646 115.831  0.00  0.00    -0.241 OA
ENDBRANCH   3  22
TORSDOF 7
ENDMDL
MODEL 3
REMARK VINA RESULT:      -4.9      2.139      3.070
REMARK  7 active torsions:
REMARK  status: ('A' for Active; 'I' for Inactive)
REMARK    1  A    between atoms: C_2  and  C_3 
REMARK    2  A    between atoms: C_3  and  O_6 
REMARK    3  A    between atoms: C_3  and  C_4 
REMARK    4  A    between atoms: C_7  and  O_6 
REMARK    5  A    between atoms: C_9  and  C_10 
REMARK    6  A    between atoms: N_15  and  C_14 
REMARK    7  A    between atoms: N_20  and  C_19 
REMARK       I    between atoms: C_22  and  N_20 
ROOT
ATOM      1  C   LIG d   1      -3.782  92.666 117.183  0.00  0.00     0.161 C 
ATOM      2  C   LIG d   1      -5.073  92.253 116.814  0.00  0.00     0.016 C 
ATOM      3  C   LIG d   1      -5.378  90.940 116.386  0.00  0.00     0.038 C 
ATOM      4  C   LIG d   1      -4.433  89.904 116.443  0.00  0.00     0.028 C 
ATOM      5  C   LIG d   1      -2.993  90.390 116.329  0.00  0.00    -0.047 C 
ATOM      6  C   LIG d   1      -2.762  91.521 117.357  0.00  0.00     0.091 C 
ENDROOT
BRANCH   1   7
ATOM      7  O   LIG d   1      -3.849  93.465 118.381  0.00  0.00    -0.368 OA
BRANCH   7   8
ATOM      8  C   LIG d   1      -5.131  93.499 119.053  0.00  0.00     0.119 C 
BRANCH   8   9
ATOM      9  C   LIG d   1      -5.482  94.978 119.306  0.00  0.00     0.028 C 
ATOM     10  C   LIG d   1      -6.687  95.447 118.473  0.00  0.00     0.006 C 
ENDBRANCH   8   9
BRANCH   8  11
ATOM     11  C   LIG d   1      -5.050  92.859 120.442  0.00  0.00     0.028 C 
ATOM     12  C   LIG d   1      -6.428  92.470 121.001  0.00  0.00     0.006 C 
ENDBRANCH   8  11
ENDBRANCH   7   8
ENDBRANCH   1   7
BRANCH   6  13
ATOM     13  N   LIG d   1      -1.402  92.111 117.256  0.00  0.00    -0.311 N 
ATOM     14  C   LIG d   1      -0.370  91.707 117.994  0.00  0.00     0.210 C 
ATOM     15  C   LIG d   1       0.939  92.463 117.745  0.00  0.00     0.109 C 
ATOM     16  O   LIG d   1      -0.407  90.772 118.808  0.00  0.00    -0.276 OA
ATOM     17  H   LIG d   1      -1.276  92.855 116.597  0.00  0.00     0.149 HD
ENDBRANCH   6  13
BRANCH   5  18
ATOM     18  N   LIG d   1      -2.111  89.227 116.541  0.00  0.00     0.381 N 
ATOM     19  H   LIG d   1      -1.689  88.960 115.675  0.00  0.00    -0.090 HD
ATOM     20  H   LIG d   1      -2.664  88.457 116.874  0.00  0.00    -0.090 HD
ATOM     21  H   LIG d   1      -1.406  89.451 117.208  0.00  0.00    -0.090 HD
ENDBRANCH   5  18
BRANCH   3  22
ATOM     22  C   LIG d   1      -6.629  90.662 115.856  0.00  0.00     0.382 C 
ATOM     23  O   LIG d   1      -7.392  91.602 115.526  0.00  0.00    -0.241 OA
ATOM     24  O   LIG d   1      -7.021  89.485 115.746  0.00  0.00    -0.241 OA
ENDBRANCH   3  22
TORSDOF 7
ENDMDL
MODEL 4
REMARK VINA RESULT:      -4.9      3.022      5.842
REMARK  7 active torsions:
REMARK  status: ('A' for Active; 'I' for Inactive)
REMARK    1  A    between atoms: C_2  and  C_3 
REMARK    2  A    between atoms: C_3  and  O_6 
REMARK    3  A    between atoms: C_3  and  C_4 
REMARK    4  A    between atoms: C_7  and  O_6 
REMARK    5  A    between atoms: C_9  and  C_10 
REMARK    6  A    between atoms: N_15  and  C_14 
REMARK    7  A    between atoms: N_20  and  C_19 
REMARK       I    between atoms: C_22  and  N_20 
ROOT
ATOM      1  C   LIG d   1      -2.829  90.635 117.243  0.00  0.00     0.161 C 
ATOM      2  C   LIG d   1      -4.011  90.300 116.561  0.00  0.00     0.016 C 
ATOM      3  C   LIG d   1      -5.116  91.174 116.445  0.00  0.00     0.038 C 
ATOM      4  C   LIG d   1      -5.056  92.507 116.876  0.00  0.00     0.028 C 
ATOM      5  C   LIG d   1      -4.069  92.731 118.017  0.00  0.00    -0.047 C 
ATOM      6  C   LIG d   1      -2.703  92.125 117.624  0.00  0.00     0.091 C 
ENDROOT
BRANCH   1   7
ATOM      7  O   LIG d   1      -1.685  90.217 116.473  0.00  0.00    -0.368 OA
BRANCH   7   8
ATOM      8  C   LIG d   1      -0.793  89.274 117.117  0.00  0.00     0.119 C 
BRANCH   8   9
ATOM      9  C   LIG d   1       0.629  89.550 116.593  0.00  0.00     0.028 C 
ATOM     10  C   LIG d   1       0.953  91.052 116.536  0.00  0.00     0.006 C 
ENDBRANCH   8   9
BRANCH   8  11
ATOM     11  C   LIG d   1      -1.107  87.834 116.700  0.00  0.00     0.028 C 
ATOM     12  C   LIG d   1       0.048  87.170 115.934  0.00  0.00     0.006 C 
ENDBRANCH   8  11
ENDBRANCH   7   8
ENDBRANCH   1   7
BRANCH   6  13
ATOM     13  N   LIG d   1      -1.702  92.226 118.719  0.00  0.00    -0.311 N 
ATOM     14  C   LIG d   1      -0.813  93.214 118.810  0.00  0.00     0.210 C 
ATOM     15  C   LIG d   1       0.140  93.116 120.005  0.00  0.00     0.109 C 
ATOM     16  O   LIG d   1      -0.744  94.178 118.033  0.00  0.00    -0.276 OA
ATOM     17  H   LIG d   1      -1.708  91.502 119.410  0.00  0.00     0.149 HD
ENDBRANCH   6  13
BRANCH   5  18
ATOM     18  N   LIG d   1      -4.006  94.182 118.274  0.00  0.00     0.381 N 
ATOM     19  H   LIG d   1      -4.113  94.358 119.253  0.00  0.00    -0.090 HD
ATOM     20  H   LIG d   1      -4.763  94.631 117.789  0.00  0.00    -0.090 HD
ATOM     21  H   LIG d   1      -3.136  94.547 117.956  0.00  0.00    -0.090 HD
ENDBRANCH   5  18
BRANCH   3  22
ATOM     22  C   LIG d   1      -6.313  90.702 115.927  0.00  0.00     0.382 C 
ATOM     23  O   LIG d   1      -6.406  89.509 115.551  0.00  0.00    -0.241 OA
ATOM     24  O   LIG d   1      -7.287  91.467 115.790  0.00  0.00    -0.241 OA
ENDBRANCH   3  22
TORSDOF 7
ENDMDL
MODEL 5
REMARK VINA RESULT:      -4.8      2.684      4.478
REMARK  7 active torsions:
REMARK  status: ('A' for Active; 'I' for Inactive)
REMARK    1  A    between atoms: C_2  and  C_3 
REMARK    2  A    between atoms: C_3  and  O_6 
REMARK    3  A    between atoms: C_3  and  C_4 
REMARK    4  A    between atoms: C_7  and  O_6 
REMARK    5  A    between atoms: C_9  and  C_10 
REMARK    6  A    between atoms: N_15  and  C_14 
REMARK    7  A    between atoms: N_20  and  C_19 
REMARK       I    between atoms: C_22  and  N_20 
ROOT
ATOM      1  C   LIG d   1      -2.793  92.660 117.346  0.00  0.00     0.161 C 
ATOM      2  C   LIG d   1      -4.195  92.580 117.313  0.00  0.00     0.016 C 
ATOM      3  C   LIG d   1      -4.900  91.381 117.058  0.00  0.00     0.038 C 
ATOM      4  C   LIG d   1      -4.247  90.142 116.967  0.00  0.00     0.028 C 
ATOM      5  C   LIG d   1      -2.802  90.252 116.491  0.00  0.00    -0.047 C 
ATOM      6  C   LIG d   1      -2.067  91.298 117.359  0.00  0.00     0.091 C 
ENDROOT
BRANCH   1   7
ATOM      7  O   LIG d   1      -2.375  93.461 118.469  0.00  0.00    -0.368 OA
BRANCH   7   8
ATOM      8  C   LIG d   1      -1.836  94.768 118.154  0.00  0.00     0.119 C 
BRANCH   8   9
ATOM      9  C   LIG d   1      -0.318  94.719 118.418  0.00  0.00     0.028 C 
ATOM     10  C   LIG d   1       0.030  93.929 119.691  0.00  0.00     0.006 C 
ENDBRANCH   8   9
BRANCH   8  11
ATOM     11  C   LIG d   1      -2.378  95.839 119.106  0.00  0.00     0.028 C 
ATOM     12  C   LIG d   1      -3.665  95.402 119.822  0.00  0.00     0.006 C 
ENDBRANCH   8  11
ENDBRANCH   7   8
ENDBRANCH   1   7
BRANCH   6  13
ATOM     13  N   LIG d   1      -0.670  91.529 116.907  0.00  0.00    -0.311 N 
ATOM     14  C   LIG d   1       0.386  90.929 117.453  0.00  0.00     0.210 C 
ATOM     15  C   LIG d   1       1.738  91.323 116.850  0.00  0.00     0.109 C 
ATOM     16  O   LIG d   1       0.329  90.083 118.359  0.00  0.00    -0.276 OA
ATOM     17  H   LIG d   1      -0.535  92.177 116.156  0.00  0.00     0.149 HD
ENDBRANCH   6  13
BRANCH   5  18
ATOM     18  N   LIG d   1      -2.202  88.907 116.575  0.00  0.00     0.381 N 
ATOM     19  H   LIG d   1      -1.217  88.985 116.731  0.00  0.00    -0.090 HD
ATOM     20  H   LIG d   1      -2.347  88.432 115.701  0.00  0.00    -0.090 HD
ATOM     21  H   LIG d   1      -2.624  88.391 117.315  0.00  0.00    -0.090 HD
ENDBRANCH   5  18
BRANCH   3  22
ATOM     22  C   LIG d   1      -6.270  91.420 116.851  0.00  0.00     0.382 C 
ATOM     23  O   LIG d   1      -6.941  90.361 116.890  0.00  0.00    -0.241 OA
ATOM     24  O   LIG d   1      -6.838  92.496 116.581  0.00  0.00    -0.241 OA
ENDBRANCH   3  22
TORSDOF 7
ENDMDL
MODEL 6
REMARK VINA RESULT:      -4.8      2.278      3.449
REMARK  7 active torsions:
REMARK  status: ('A' for Active; 'I' for Inactive)
REMARK    1  A    between atoms: C_2  and  C_3 
REMARK    2  A    between atoms: C_3  and  O_6 
REMARK    3  A    between atoms: C_3  and  C_4 
REMARK    4  A    between atoms: C_7  and  O_6 
REMARK    5  A    between atoms: C_9  and  C_10 
REMARK    6  A    between atoms: N_15  and  C_14 
REMARK    7  A    between atoms: N_20  and  C_19 
REMARK       I    between atoms: C_22  and  N_20 
ROOT
ATOM      1  C   LIG d   1      -3.572  92.671 117.250  0.00  0.00     0.161 C 
ATOM      2  C   LIG d   1      -4.887  92.297 116.926  0.00  0.00     0.016 C 
ATOM      3  C   LIG d   1      -5.244  90.997 116.502  0.00  0.00     0.038 C 
ATOM      4  C   LIG d   1      -4.328  89.934 116.519  0.00  0.00     0.028 C 
ATOM      5  C   LIG d   1      -2.879  90.380 116.356  0.00  0.00    -0.047 C 
ATOM      6  C   LIG d   1      -2.580  91.497 117.382  0.00  0.00     0.091 C 
ENDROOT
BRANCH   1   7
ATOM      7  O   LIG d   1      -3.573  93.464 118.454  0.00  0.00    -0.368 OA
BRANCH   7   8
ATOM      8  C   LIG d   1      -3.841  92.751 119.687  0.00  0.00     0.119 C 
BRANCH   8   9
ATOM      9  C   LIG d   1      -5.052  93.427 120.358  0.00  0.00     0.028 C 
ATOM     10  C   LIG d   1      -6.300  92.528 120.362  0.00  0.00     0.006 C 
ENDBRANCH   8   9
BRANCH   8  11
ATOM     11  C   LIG d   1      -2.687  92.905 120.682  0.00  0.00     0.028 C 
ATOM     12  C   LIG d   1      -1.754  94.075 120.335  0.00  0.00     0.006 C 
ENDBRANCH   8  11
ENDBRANCH   7   8
ENDBRANCH   1   7
BRANCH   6  13
ATOM     13  N   LIG d   1      -1.208  92.050 117.234  0.00  0.00    -0.311 N 
ATOM     14  C   LIG d   1      -0.172  91.644 117.966  0.00  0.00     0.210 C 
ATOM     15  C   LIG d   1       1.150  92.359 117.667  0.00  0.00     0.109 C 
ATOM     16  O   LIG d   1      -0.215  90.739 118.813  0.00  0.00    -0.276 OA
ATOM     17  H   LIG d   1      -1.076  92.767 116.548  0.00  0.00     0.149 HD
ENDBRANCH   6  13
BRANCH   5  18
ATOM     18  N   LIG d   1      -2.024  89.191 116.530  0.00  0.00     0.381 N 
ATOM     19  H   LIG d   1      -1.846  89.042 117.503  0.00  0.00    -0.090 HD
ATOM     20  H   LIG d   1      -1.146  89.352 116.069  0.00  0.00    -0.090 HD
ATOM     21  H   LIG d   1      -2.471  88.390 116.140  0.00  0.00    -0.090 HD
ENDBRANCH   5  18
BRANCH   3  22
ATOM     22  C   LIG d   1      -6.521  90.758 116.016  0.00  0.00     0.382 C 
ATOM     23  O   LIG d   1      -6.919  89.580 115.851  0.00  0.00    -0.241 OA
ATOM     24  O   LIG d   1      -7.264  91.707 115.701  0.00  0.00    -0.241 OA
ENDBRANCH   3  22
TORSDOF 7
ENDMDL
MODEL 7
REMARK VINA RESULT:      -4.6      2.922      5.292
REMARK  7 active torsions:
REMARK  status: ('A' for Active; 'I' for Inactive)
REMARK    1  A    between atoms: C_2  and  C_3 
REMARK    2  A    between atoms: C_3  and  O_6 
REMARK    3  A    between atoms: C_3  and  C_4 
REMARK    4  A    between atoms: C_7  and  O_6 
REMARK    5  A    between atoms: C_9  and  C_10 
REMARK    6  A    between atoms: N_15  and  C_14 
REMARK    7  A    between atoms: N_20  and  C_19 
REMARK       I    between atoms: C_22  and  N_20 
ROOT
ATOM      1  C   LIG d   1      -2.672  92.377 117.771  0.00  0.00     0.161 C 
ATOM      2  C   LIG d   1      -3.992  92.838 117.635  0.00  0.00     0.016 C 
ATOM      3  C   LIG d   1      -5.018  92.088 117.016  0.00  0.00     0.038 C 
ATOM      4  C   LIG d   1      -4.828  90.755 116.622  0.00  0.00     0.028 C 
ATOM      5  C   LIG d   1      -3.379  90.425 116.281  0.00  0.00    -0.047 C 
ATOM      6  C   LIG d   1      -2.472  90.881 117.447  0.00  0.00     0.091 C 
ENDROOT
BRANCH   1   7
ATOM      7  O   LIG d   1      -2.185  92.672 119.095  0.00  0.00    -0.368 OA
BRANCH   7   8
ATOM      8  C   LIG d   1      -1.161  93.694 119.185  0.00  0.00     0.119 C 
BRANCH   8   9
ATOM      9  C   LIG d   1      -1.035  94.346 117.794  0.00  0.00     0.028 C 
ATOM     10  C   LIG d   1      -1.252  95.868 117.838  0.00  0.00     0.006 C 
ENDBRANCH   8   9
BRANCH   8  11
ATOM     11  C   LIG d   1       0.213  93.082 119.471  0.00  0.00     0.028 C 
ATOM     12  C   LIG d   1       1.195  93.246 118.300  0.00  0.00     0.006 C 
ENDBRANCH   8  11
ENDBRANCH   7   8
ENDBRANCH   1   7
BRANCH   6  13
ATOM     13  N   LIG d   1      -1.029  90.672 117.159  0.00  0.00    -0.311 N 
ATOM     14  C   LIG d   1      -0.348  89.603 117.569  0.00  0.00     0.210 C 
ATOM     15  C   LIG d   1       1.134  89.594 117.181  0.00  0.00     0.109 C 
ATOM     16  O   LIG d   1      -0.837  88.647 118.189  0.00  0.00    -0.276 OA
ATOM     17  H   LIG d   1      -0.561  91.384 116.635  0.00  0.00     0.149 HD
ENDBRANCH   6  13
BRANCH   5  18
ATOM     18  N   LIG d   1      -3.301  88.975 116.022  0.00  0.00     0.381 N 
ATOM     19  H   LIG d   1      -2.346  88.703 115.902  0.00  0.00    -0.090 HD
ATOM     20  H   LIG d   1      -3.797  88.769 115.173  0.00  0.00    -0.090 HD
ATOM     21  H   LIG d   1      -3.704  88.471 116.781  0.00  0.00    -0.090 HD
ENDBRANCH   5  18
BRANCH   3  22
ATOM     22  C   LIG d   1      -6.240  92.686 116.748  0.00  0.00     0.382 C 
ATOM     23  O   LIG d   1      -7.012  92.182 115.897  0.00  0.00    -0.241 OA
ATOM     24  O   LIG d   1      -6.562  93.747 117.316  0.00  0.00    -0.241 OA
ENDBRANCH   3  22
TORSDOF 7
ENDMDL
MODEL 8
REMARK VINA RESULT:      -4.6      2.402      4.837
REMARK  7 active torsions:
REMARK  status: ('A' for Active; 'I' for Inactive)
REMARK    1  A    between atoms: C_2  and  C_3 
REMARK    2  A    between atoms: C_3  and  O_6 
REMARK    3  A    between atoms: C_3  and  C_4 
REMARK    4  A    between atoms: C_7  and  O_6 
REMARK    5  A    between atoms: C_9  and  C_10 
REMARK    6  A    between atoms: N_15  and  C_14 
REMARK    7  A    between atoms: N_20  and  C_19 
REMARK       I    between atoms: C_22  and  N_20 
ROOT
ATOM      1  C   LIG d   1      -4.053  91.208 118.442  0.00  0.00     0.161 C 
ATOM      2  C   LIG d   1      -4.940  90.686 117.486  0.00  0.00     0.016 C 
ATOM      3  C   LIG d   1      -5.962  91.448 116.875  0.00  0.00     0.038 C 
ATOM      4  C   LIG d   1      -6.071  92.833 117.068  0.00  0.00     0.028 C 
ATOM      5  C   LIG d   1      -5.516  93.303 118.409  0.00  0.00    -0.047 C 
ATOM      6  C   LIG d   1      -4.085  92.744 118.583  0.00  0.00     0.091 C 
ENDROOT
BRANCH   1   7
ATOM      7  O   LIG d   1      -2.713  90.758 118.162  0.00  0.00    -0.368 OA
BRANCH   7   8
ATOM      8  C   LIG d   1      -2.150  89.807 119.099  0.00  0.00     0.119 C 
BRANCH   8   9
ATOM      9  C   LIG d   1      -0.719  90.272 119.428  0.00  0.00     0.028 C 
ATOM     10  C   LIG d   1      -0.178  91.280 118.399  0.00  0.00     0.006 C 
ENDBRANCH   8   9
BRANCH   8  11
ATOM     11  C   LIG d   1      -1.991  88.424 118.461  0.00  0.00     0.028 C 
ATOM     12  C   LIG d   1      -2.068  88.462 116.927  0.00  0.00     0.006 C 
ENDBRANCH   8  11
ENDBRANCH   7   8
ENDBRANCH   1   7
BRANCH   6  13
ATOM     13  N   LIG d   1      -3.500  93.086 119.906  0.00  0.00    -0.311 N 
ATOM     14  C   LIG d   1      -2.393  93.813 120.052  0.00  0.00     0.210 C 
ATOM     15  C   LIG d   1      -1.951  94.033 121.502  0.00  0.00     0.109 C 
ATOM     16  O   LIG d   1      -1.755  94.324 119.120  0.00  0.00    -0.276 OA
ATOM     17  H   LIG d   1      -3.972  92.739 120.717  0.00  0.00     0.149 HD
ENDBRANCH   6  13
BRANCH   5  18
ATOM     18  N   LIG d   1      -5.566  94.777 118.420  0.00  0.00     0.381 N 
ATOM     19  H   LIG d   1      -6.466  95.083 118.732  0.00  0.00    -0.090 HD
ATOM     20  H   LIG d   1      -5.425  95.114 117.484  0.00  0.00    -0.090 HD
ATOM     21  H   LIG d   1      -4.858  95.138 119.021  0.00  0.00    -0.090 HD
ENDBRANCH   5  18
BRANCH   3  22
ATOM     22  C   LIG d   1      -6.915  90.816 116.090  0.00  0.00     0.382 C 
ATOM     23  O   LIG d   1      -7.736  91.497 115.430  0.00  0.00    -0.241 OA
ATOM     24  O   LIG d   1      -6.992  89.573 116.069  0.00  0.00    -0.241 OA
ENDBRANCH   3  22
TORSDOF 7
ENDMDL
MODEL 9
REMARK VINA RESULT:      -4.6      1.486      2.137
REMARK  7 active torsions:
REMARK  status: ('A' for Active; 'I' for Inactive)
REMARK    1  A    between atoms: C_2  and  C_3 
REMARK    2  A    between atoms: C_3  and  O_6 
REMARK    3  A    between atoms: C_3  and  C_4 
REMARK    4  A    between atoms: C_7  and  O_6 
REMARK    5  A    between atoms: C_9  and  C_10 
REMARK    6  A    between atoms: N_15  and  C_14 
REMARK    7  A    between atoms: N_20  and  C_19 
REMARK       I    between atoms: C_22  and  N_20 
ROOT
ATOM      1  C   LIG d   1      -5.254  93.330 118.237  0.00  0.00     0.161 C 
ATOM      2  C   LIG d   1      -6.214  92.509 117.622  0.00  0.00     0.016 C 
ATOM      3  C   LIG d   1      -5.886  91.373 116.848  0.00  0.00     0.038 C 
ATOM      4  C   LIG d   1      -4.572  90.889 116.761  0.00  0.00     0.028 C 
ATOM      5  C   LIG d   1      -3.514  91.972 116.949  0.00  0.00    -0.047 C 
ATOM      6  C   LIG d   1      -3.822  92.754 118.246  0.00  0.00     0.091 C 
ENDROOT
BRANCH   1   7
ATOM      7  O   LIG d   1      -5.674  93.651 119.578  0.00  0.00    -0.368 OA
BRANCH   7   8
ATOM      8  C   LIG d   1      -5.587  92.578 120.547  0.00  0.00     0.119 C 
BRANCH   8   9
ATOM      9  C   LIG d   1      -6.930  92.525 121.300  0.00  0.00     0.028 C 
ATOM     10  C   LIG d   1      -7.924  93.588 120.803  0.00  0.00     0.006 C 
ENDBRANCH   8   9
BRANCH   8  11
ATOM     11  C   LIG d   1      -4.534  92.877 121.618  0.00  0.00     0.028 C 
ATOM     12  C   LIG d   1      -4.382  94.380 121.901  0.00  0.00     0.006 C 
ENDBRANCH   8  11
ENDBRANCH   7   8
ENDBRANCH   1   7
BRANCH   6  13
ATOM     13  N   LIG d   1      -2.884  93.887 118.461  0.00  0.00    -0.311 N 
ATOM     14  C   LIG d   1      -1.788  93.798 119.212  0.00  0.00     0.210 C 
ATOM     15  C   LIG d   1      -0.970  95.089 119.318  0.00  0.00     0.109 C 
ATOM     16  O   LIG d   1      -1.397  92.763 119.774  0.00  0.00    -0.276 OA
ATOM     17  H   LIG d   1      -3.108  94.755 118.016  0.00  0.00     0.149 HD
ENDBRANCH   6  13
BRANCH   5  18
ATOM     18  N   LIG d   1      -2.197  91.309 116.973  0.00  0.00     0.381 N 
ATOM     19  H   LIG d   1      -2.085  90.808 117.831  0.00  0.00    -0.090 HD
ATOM     20  H   LIG d   1      -1.479  92.010 116.922  0.00  0.00    -0.090 HD
ATOM     21  H   LIG d   1      -2.116  90.684 116.202  0.00  0.00    -0.090 HD
ENDBRANCH   5  18
BRANCH   3  22
ATOM     22  C   LIG d   1      -6.873  90.730 116.117  0.00  0.00     0.382 C 
ATOM     23  O   LIG d   1      -7.682  91.400 115.430  0.00  0.00    -0.241 OA
ATOM     24  O   LIG d   1      -6.994  89.491 116.171  0.00  0.00    -0.241 OA
ENDBRANCH   3  22
TORSDOF 7
ENDMDL
