MODEL 1
REMARK VINA RESULT:      -5.5      0.000      0.000
REMARK  7 active torsions:
REMARK  status: ('A' for Active; 'I' for Inactive)
REMARK    1  A    between atoms: C_2  and  C_3 
REMARK    2  A    between atoms: C_3  and  O_6 
REMARK    3  A    between atoms: C_3  and  C_4 
REMARK    4  A    between atoms: C_7  and  O_6 
REMARK    5  A    between atoms: C_9  and  C_10 
REMARK    6  A    between atoms: N_15  and  C_14 
REMARK    7  A    between atoms: N_20  and  C_19 
REMARK       I    between atoms: C_22  and  N_20 
ROOT
ATOM      1  C   LIG d   1      -6.391  93.304 118.339  0.00  0.00     0.161 C 
ATOM      2  C   LIG d   1      -6.957  92.246 117.607  0.00  0.00     0.016 C 
ATOM      3  C   LIG d   1      -6.190  91.264 116.940  0.00  0.00     0.038 C 
ATOM      4  C   LIG d   1      -4.797  91.185 117.085  0.00  0.00     0.028 C 
ATOM      5  C   LIG d   1      -4.144  92.527 117.401  0.00  0.00    -0.047 C 
ATOM      6  C   LIG d   1      -4.876  93.171 118.601  0.00  0.00     0.091 C 
ENDROOT
BRANCH   1   7
ATOM      7  O   LIG d   1      -7.102  93.473 119.581  0.00  0.00    -0.368 OA
BRANCH   7   8
ATOM      8  C   LIG d   1      -8.022  94.591 119.641  0.00  0.00     0.119 C 
BRANCH   8   9
ATOM      9  C   LIG d   1      -9.450  94.021 119.528  0.00  0.00     0.028 C 
ATOM     10  C   LIG d   1      -9.804  93.088 120.698  0.00  0.00     0.006 C 
ENDBRANCH   8   9
BRANCH   8  11
ATOM     11  C   LIG d   1      -7.857  95.515 118.431  0.00  0.00     0.028 C 
ATOM     12  C   LIG d   1      -7.244  96.875 118.799  0.00  0.00     0.006 C 
ENDBRANCH   8  11
ENDBRANCH   7   8
ENDBRANCH   1   7
BRANCH   6  13
ATOM     13  N   LIG d   1      -4.355  94.525 118.923  0.00  0.00    -0.311 N 
ATOM     14  C   LIG d   1      -3.422  94.751 119.847  0.00  0.00     0.210 C 
ATOM     15  C   LIG d   1      -3.042  96.223 120.035  0.00  0.00     0.109 C 
ATOM     16  O   LIG d   1      -2.851  93.869 120.505  0.00  0.00    -0.276 OA
ATOM     17  H   LIG d   1      -4.741  95.295 118.414  0.00  0.00     0.149 HD
ENDBRANCH   6  13
BRANCH   5  18
ATOM     18  N   LIG d   1      -2.715  92.276 117.663  0.00  0.00     0.381 N 
ATOM     19  H   LIG d   1      -2.424  92.787 118.473  0.00  0.00    -0.090 HD
ATOM     20  H   LIG d   1      -2.179  92.600 116.877  0.00  0.00    -0.090 HD
ATOM     21  H   LIG d   1      -2.559  91.302 117.802  0.00  0.00    -0.090 HD
ENDBRANCH   5  18
BRANCH   3  22
ATOM     22  C   LIG d   1      -6.814  90.370 116.083  0.00  0.00     0.382 C 
ATOM     23  O   LIG d   1      -8.065  90.355 115.995  0.00  0.00    -0.241 OA
ATOM     24  O   LIG d   1      -6.144  89.548 115.430  0.00  0.00    -0.241 OA
ENDBRANCH   3  22
TORSDOF 7
ENDMDL
MODEL 2
REMARK VINA RESULT:      -5.2      0.920      1.650
REMARK  7 active torsions:
REMARK  status: ('A' for Active; 'I' for Inactive)
REMARK    1  A    between atoms: C_2  and  C_3 
REMARK    2  A    between atoms: C_3  and  O_6 
REMARK    3  A    between atoms: C_3  and  C_4 
REMARK    4  A    between atoms: C_7  and  O_6 
REMARK    5  A    between atoms: C_9  and  C_10 
REMARK    6  A    between atoms: N_15  and  C_14 
REMARK    7  A    between atoms: N_20  and  C_19 
REMARK       I    between atoms: C_22  and  N_20 
ROOT
ATOM      1  C   LIG d   1      -6.466  93.219 118.424  0.00  0.00     0.161 C 
ATOM      2  C   LIG d   1      -7.029  92.247 117.580  0.00  0.00     0.016 C 
ATOM      3  C   LIG d   1      -6.259  91.350 116.805  0.00  0.00     0.038 C 
ATOM      4  C   LIG d   1      -4.865  91.262 116.937  0.00  0.00     0.028 C 
ATOM      5  C   LIG d   1      -4.218  92.563 117.400  0.00  0.00    -0.047 C 
ATOM      6  C   LIG d   1      -4.950  93.065 118.666  0.00  0.00     0.091 C 
ENDROOT
BRANCH   1   7
ATOM      7  O   LIG d   1      -7.174  93.245 119.679  0.00  0.00    -0.368 OA
BRANCH   7   8
ATOM      8  C   LIG d   1      -7.686  94.535 120.095  0.00  0.00     0.119 C 
BRANCH   8   9
ATOM      9  C   LIG d   1      -7.069  94.856 121.470  0.00  0.00     0.028 C 
ATOM     10  C   LIG d   1      -6.516  93.605 122.173  0.00  0.00     0.006 C 
ENDBRANCH   8   9
BRANCH   8  11
ATOM     11  C   LIG d   1      -9.198  94.484 120.332  0.00  0.00     0.028 C 
ATOM     12  C   LIG d   1      -9.778  93.069 120.177  0.00  0.00     0.006 C 
ENDBRANCH   8  11
ENDBRANCH   7   8
ENDBRANCH   1   7
BRANCH   6  13
ATOM     13  N   LIG d   1      -4.434  94.377 119.136  0.00  0.00    -0.311 N 
ATOM     14  C   LIG d   1      -3.500  94.503 120.078  0.00  0.00     0.210 C 
ATOM     15  C   LIG d   1      -3.126  95.947 120.428  0.00  0.00     0.109 C 
ATOM     16  O   LIG d   1      -2.923  93.556 120.633  0.00  0.00    -0.276 OA
ATOM     17  H   LIG d   1      -4.825  95.198 118.717  0.00  0.00     0.149 HD
ENDBRANCH   6  13
BRANCH   5  18
ATOM     18  N   LIG d   1      -2.786  92.292 117.629  0.00  0.00     0.381 N 
ATOM     19  H   LIG d   1      -2.276  92.426 116.779  0.00  0.00    -0.090 HD
ATOM     20  H   LIG d   1      -2.678  91.335 117.914  0.00  0.00    -0.090 HD
ATOM     21  H   LIG d   1      -2.433  92.899 118.335  0.00  0.00    -0.090 HD
ENDBRANCH   5  18
BRANCH   3  22
ATOM     22  C   LIG d   1      -6.881  90.554 115.855  0.00  0.00     0.382 C 
ATOM     23  O   LIG d   1      -8.024  90.856 115.435  0.00  0.00    -0.241 OA
ATOM     24  O   LIG d   1      -6.333  89.513 115.445  0.00  0.00    -0.241 OA
ENDBRANCH   3  22
TORSDOF 7
ENDMDL
MODEL 3
REMARK VINA RESULT:      -4.8      2.124      4.517
REMARK  7 active torsions:
REMARK  status: ('A' for Active; 'I' for Inactive)
REMARK    1  A    between atoms: C_2  and  C_3 
REMARK    2  A    between atoms: C_3  and  O_6 
REMARK    3  A    between atoms: C_3  and  C_4 
REMARK    4  A    between atoms: C_7  and  O_6 
REMARK    5  A    between atoms: C_9  and  C_10 
REMARK    6  A    between atoms: N_15  and  C_14 
REMARK    7  A    between atoms: N_20  and  C_19 
REMARK       I    between atoms: C_22  and  N_20 
ROOT
ATOM      1  C   LIG d   1      -4.584  92.275 118.318  0.00  0.00     0.161 C 
ATOM      2  C   LIG d   1      -5.077  91.397 117.339  0.00  0.00     0.016 C 
ATOM      3  C   LIG d   1      -6.448  91.285 117.013  0.00  0.00     0.038 C 
ATOM      4  C   LIG d   1      -7.409  92.158 117.542  0.00  0.00     0.028 C 
ATOM      5  C   LIG d   1      -7.030  92.721 118.908  0.00  0.00    -0.047 C 
ATOM      6  C   LIG d   1      -5.604  93.314 118.827  0.00  0.00     0.091 C 
ENDROOT
BRANCH   1   7
ATOM      7  O   LIG d   1      -3.398  92.934 117.831  0.00  0.00    -0.368 OA
BRANCH   7   8
ATOM      8  C   LIG d   1      -2.184  92.703 118.589  0.00  0.00     0.119 C 
BRANCH   8   9
ATOM      9  C   LIG d   1      -1.699  94.069 119.112  0.00  0.00     0.028 C 
ATOM     10  C   LIG d   1      -1.967  95.209 118.114  0.00  0.00     0.006 C 
ENDBRANCH   8   9
BRANCH   8  11
ATOM     11  C   LIG d   1      -1.056  92.190 117.690  0.00  0.00     0.028 C 
ATOM     12  C   LIG d   1      -1.096  90.666 117.495  0.00  0.00     0.006 C 
ENDBRANCH   8  11
ENDBRANCH   7   8
ENDBRANCH   1   7
BRANCH   6  13
ATOM     13  N   LIG d   1      -5.122  93.811 120.142  0.00  0.00    -0.311 N 
ATOM     14  C   LIG d   1      -4.943  95.102 120.418  0.00  0.00     0.210 C 
ATOM     15  C   LIG d   1      -4.420  95.396 121.827  0.00  0.00     0.109 C 
ATOM     16  O   LIG d   1      -5.199  96.033 119.639  0.00  0.00    -0.276 OA
ATOM     17  H   LIG d   1      -4.920  93.125 120.843  0.00  0.00     0.149 HD
ENDBRANCH   6  13
BRANCH   5  18
ATOM     18  N   LIG d   1      -8.051  93.719 119.278  0.00  0.00     0.381 N 
ATOM     19  H   LIG d   1      -7.650  94.403 119.890  0.00  0.00    -0.090 HD
ATOM     20  H   LIG d   1      -8.796  93.256 119.768  0.00  0.00    -0.090 HD
ATOM     21  H   LIG d   1      -8.407  94.163 118.460  0.00  0.00    -0.090 HD
ENDBRANCH   5  18
BRANCH   3  22
ATOM     22  C   LIG d   1      -6.875  90.264 116.178  0.00  0.00     0.382 C 
ATOM     23  O   LIG d   1      -8.073  89.892 116.203  0.00  0.00    -0.241 OA
ATOM     24  O   LIG d   1      -6.068  89.679 115.431  0.00  0.00    -0.241 OA
ENDBRANCH   3  22
TORSDOF 7
ENDMDL
MODEL 4
REMARK VINA RESULT:      -4.8      2.334      4.908
REMARK  7 active torsions:
REMARK  status: ('A' for Active; 'I' for Inactive)
REMARK    1  A    between atoms: C_2  and  C_3 
REMARK    2  A    between atoms: C_3  and  O_6 
REMARK    3  A    between atoms: C_3  and  C_4 
REMARK    4  A    between atoms: C_7  and  O_6 
REMARK    5  A    between atoms: C_9  and  C_10 
REMARK    6  A    between atoms: N_15  and  C_14 
REMARK    7  A    between atoms: N_20  and  C_19 
REMARK       I    between atoms: C_22  and  N_20 
ROOT
ATOM      1  C   LIG d   1      -4.114  91.763 118.113  0.00  0.00     0.161 C 
ATOM      2  C   LIG d   1      -4.831  91.069 117.124  0.00  0.00     0.016 C 
ATOM      3  C   LIG d   1      -6.119  91.453 116.683  0.00  0.00     0.038 C 
ATOM      4  C   LIG d   1      -6.717  92.653 117.098  0.00  0.00     0.028 C 
ATOM      5  C   LIG d   1      -6.248  93.121 118.471  0.00  0.00    -0.047 C 
ATOM      6  C   LIG d   1      -4.703  93.136 118.496  0.00  0.00     0.091 C 
ENDROOT
BRANCH   1   7
ATOM      7  O   LIG d   1      -2.737  91.903 117.710  0.00  0.00    -0.368 OA
BRANCH   7   8
ATOM      8  C   LIG d   1      -1.952  90.685 117.690  0.00  0.00     0.119 C 
BRANCH   8   9
ATOM      9  C   LIG d   1      -2.134  89.995 119.055  0.00  0.00     0.028 C 
ATOM     10  C   LIG d   1      -2.576  88.528 118.917  0.00  0.00     0.006 C 
ENDBRANCH   8   9
BRANCH   8  11
ATOM     11  C   LIG d   1      -0.454  90.990 117.586  0.00  0.00     0.028 C 
ATOM     12  C   LIG d   1       0.345  89.841 116.953  0.00  0.00     0.006 C 
ENDBRANCH   8  11
ENDBRANCH   7   8
ENDBRANCH   1   7
BRANCH   6  13
ATOM     13  N   LIG d   1      -4.161  93.502 119.831  0.00  0.00    -0.311 N 
ATOM     14  C   LIG d   1      -3.322  94.517 120.028  0.00  0.00     0.210 C 
ATOM     15  C   LIG d   1      -2.869  94.708 121.479  0.00  0.00     0.109 C 
ATOM     16  O   LIG d   1      -2.935  95.297 119.145  0.00  0.00    -0.276 OA
ATOM     17  H   LIG d   1      -4.448  92.940 120.609  0.00  0.00     0.149 HD
ENDBRANCH   6  13
BRANCH   5  18
ATOM     18  N   LIG d   1      -6.844  94.447 118.718  0.00  0.00     0.381 N 
ATOM     19  H   LIG d   1      -7.772  94.341 119.077  0.00  0.00    -0.090 HD
ATOM     20  H   LIG d   1      -6.899  94.946 117.847  0.00  0.00    -0.090 HD
ATOM     21  H   LIG d   1      -6.285  94.957 119.366  0.00  0.00    -0.090 HD
ENDBRANCH   5  18
BRANCH   3  22
ATOM     22  C   LIG d   1      -6.839  90.612 115.849  0.00  0.00     0.382 C 
ATOM     23  O   LIG d   1      -6.320  89.550 115.430  0.00  0.00    -0.241 OA
ATOM     24  O   LIG d   1      -7.985  90.924 115.473  0.00  0.00    -0.241 OA
ENDBRANCH   3  22
TORSDOF 7
ENDMDL
MODEL 5
REMARK VINA RESULT:      -4.7      2.066      4.227
REMARK  7 active torsions:
REMARK  status: ('A' for Active; 'I' for Inactive)
REMARK    1  A    between atoms: C_2  and  C_3 
REMARK    2  A    between atoms: C_3  and  O_6 
REMARK    3  A    between atoms: C_3  and  C_4 
REMARK    4  A    between atoms: C_7  and  O_6 
REMARK    5  A    between atoms: C_9  and  C_10 
REMARK    6  A    between atoms: N_15  and  C_14 
REMARK    7  A    between atoms: N_20  and  C_19 
REMARK       I    between atoms: C_22  and  N_20 
ROOT
ATOM      1  C   LIG d   1      -5.454  92.509 119.026  0.00  0.00     0.161 C 
ATOM      2  C   LIG d   1      -5.639  91.589 117.981  0.00  0.00     0.016 C 
ATOM      3  C   LIG d   1      -6.599  91.758 116.956  0.00  0.00     0.038 C 
ATOM      4  C   LIG d   1      -7.340  92.941 116.823  0.00  0.00     0.028 C 
ATOM      5  C   LIG d   1      -7.546  93.679 118.142  0.00  0.00    -0.047 C 
ATOM      6  C   LIG d   1      -6.176  93.858 118.835  0.00  0.00     0.091 C 
ENDROOT
BRANCH   1   7
ATOM      7  O   LIG d   1      -4.045  92.721 119.246  0.00  0.00    -0.368 OA
BRANCH   7   8
ATOM      8  C   LIG d   1      -3.181  92.499 118.104  0.00  0.00     0.119 C 
BRANCH   8   9
ATOM      9  C   LIG d   1      -2.081  91.512 118.541  0.00  0.00     0.028 C 
ATOM     10  C   LIG d   1      -2.243  90.127 117.893  0.00  0.00     0.006 C 
ENDBRANCH   8   9
BRANCH   8  11
ATOM     11  C   LIG d   1      -2.442  93.780 117.707  0.00  0.00     0.028 C 
ATOM     12  C   LIG d   1      -2.562  94.889 118.764  0.00  0.00     0.006 C 
ENDBRANCH   8  11
ENDBRANCH   7   8
ENDBRANCH   1   7
BRANCH   6  13
ATOM     13  N   LIG d   1      -6.297  94.497 120.172  0.00  0.00    -0.311 N 
ATOM     14  C   LIG d   1      -6.156  95.805 120.375  0.00  0.00     0.210 C 
ATOM     15  C   LIG d   1      -6.300  96.253 121.833  0.00  0.00     0.109 C 
ATOM     16  O   LIG d   1      -5.957  96.642 119.481  0.00  0.00    -0.276 OA
ATOM     17  H   LIG d   1      -6.489  93.895 120.949  0.00  0.00     0.149 HD
ENDBRANCH   6  13
BRANCH   5  18
ATOM     18  N   LIG d   1      -8.212  94.959 117.837  0.00  0.00     0.381 N 
ATOM     19  H   LIG d   1      -9.128  94.786 117.473  0.00  0.00    -0.090 HD
ATOM     20  H   LIG d   1      -7.680  95.443 117.136  0.00  0.00    -0.090 HD
ATOM     21  H   LIG d   1      -8.275  95.515 118.661  0.00  0.00    -0.090 HD
ENDBRANCH   5  18
BRANCH   3  22
ATOM     22  C   LIG d   1      -6.853  90.718 116.074  0.00  0.00     0.382 C 
ATOM     23  O   LIG d   1      -5.987  89.829 115.887  0.00  0.00    -0.241 OA
ATOM     24  O   LIG d   1      -7.918  90.682 115.430  0.00  0.00    -0.241 OA
ENDBRANCH   3  22
TORSDOF 7
ENDMDL
MODEL 6
REMARK VINA RESULT:      -4.7      2.560      5.133
REMARK  7 active torsions:
REMARK  status: ('A' for Active; 'I' for Inactive)
REMARK    1  A    between atoms: C_2  and  C_3 
REMARK    2  A    between atoms: C_3  and  O_6 
REMARK    3  A    between atoms: C_3  and  C_4 
REMARK    4  A    between atoms: C_7  and  O_6 
REMARK    5  A    between atoms: C_9  and  C_10 
REMARK    6  A    between atoms: N_15  and  C_14 
REMARK    7  A    between atoms: N_20  and  C_19 
REMARK       I    between atoms: C_22  and  N_20 
ROOT
ATOM      1  C   LIG d   1      -4.368  92.386 118.802  0.00  0.00     0.161 C 
ATOM      2  C   LIG d   1      -5.670  92.839 119.072  0.00  0.00     0.016 C 
ATOM      3  C   LIG d   1      -6.796  92.482 118.295  0.00  0.00     0.038 C 
ATOM      4  C   LIG d   1      -6.719  91.520 117.276  0.00  0.00     0.028 C 
ATOM      5  C   LIG d   1      -5.335  91.418 116.643  0.00  0.00    -0.047 C 
ATOM      6  C   LIG d   1      -4.283  91.248 117.763  0.00  0.00     0.091 C 
ENDROOT
BRANCH   1   7
ATOM      7  O   LIG d   1      -3.723  91.993 120.029  0.00  0.00    -0.368 OA
BRANCH   7   8
ATOM      8  C   LIG d   1      -2.726  92.909 120.546  0.00  0.00     0.119 C 
BRANCH   8   9
ATOM      9  C   LIG d   1      -2.340  93.867 119.402  0.00  0.00     0.028 C 
ATOM     10  C   LIG d   1      -0.851  93.765 119.029  0.00  0.00     0.006 C 
ENDBRANCH   8   9
BRANCH   8  11
ATOM     11  C   LIG d   1      -1.434  92.176 120.916  0.00  0.00     0.028 C 
ATOM     12  C   LIG d   1      -1.327  91.877 122.419  0.00  0.00     0.006 C 
ENDBRANCH   8  11
ENDBRANCH   7   8
ENDBRANCH   1   7
BRANCH   6  13
ATOM     13  N   LIG d   1      -2.893  91.225 117.235  0.00  0.00    -0.311 N 
ATOM     14  C   LIG d   1      -1.956  90.387 117.676  0.00  0.00     0.210 C 
ATOM     15  C   LIG d   1      -0.585  90.543 117.011  0.00  0.00     0.109 C 
ATOM     16  O   LIG d   1      -2.139  89.508 118.531  0.00  0.00    -0.276 OA
ATOM     17  H   LIG d   1      -2.667  91.884 116.517  0.00  0.00     0.149 HD
ENDBRANCH   6  13
BRANCH   5  18
ATOM     18  N   LIG d   1      -5.360  90.287 115.697  0.00  0.00     0.381 N 
ATOM     19  H   LIG d   1      -6.307  90.067 115.457  0.00  0.00    -0.090 HD
ATOM     20  H   LIG d   1      -4.953  89.482 116.141  0.00  0.00    -0.090 HD
ATOM     21  H   LIG d   1      -4.847  90.518 114.875  0.00  0.00    -0.090 HD
ENDBRANCH   5  18
BRANCH   3  22
ATOM     22  C   LIG d   1      -8.008  93.120 118.507  0.00  0.00     0.382 C 
ATOM     23  O   LIG d   1      -8.739  92.775 119.467  0.00  0.00    -0.241 OA
ATOM     24  O   LIG d   1      -8.402  94.006 117.725  0.00  0.00    -0.241 OA
ENDBRANCH   3  22
TORSDOF 7
ENDMDL
MODEL 7
REMARK VINA RESULT:      -4.7      2.389      4.549
REMARK  7 active torsions:
REMARK  status: ('A' for Active; 'I' for Inactive)
REMARK    1  A    between atoms: C_2  and  C_3 
REMARK    2  A    between atoms: C_3  and  O_6 
REMARK    3  A    between atoms: C_3  and  C_4 
REMARK    4  A    between atoms: C_7  and  O_6 
REMARK    5  A    between atoms: C_9  and  C_10 
REMARK    6  A    between atoms: N_15  and  C_14 
REMARK    7  A    between atoms: N_20  and  C_19 
REMARK       I    between atoms: C_22  and  N_20 
ROOT
ATOM      1  C   LIG d   1      -5.453  93.332 119.955  0.00  0.00     0.161 C 
ATOM      2  C   LIG d   1      -4.171  93.038 119.462  0.00  0.00     0.016 C 
ATOM      3  C   LIG d   1      -3.936  92.490 118.180  0.00  0.00     0.038 C 
ATOM      4  C   LIG d   1      -4.966  92.339 117.239  0.00  0.00     0.028 C 
ATOM      5  C   LIG d   1      -6.341  92.150 117.871  0.00  0.00    -0.047 C 
ATOM      6  C   LIG d   1      -6.579  93.277 118.901  0.00  0.00     0.091 C 
ENDROOT
BRANCH   1   7
ATOM      7  O   LIG d   1      -5.442  94.615 120.611  0.00  0.00    -0.368 OA
BRANCH   7   8
ATOM      8  C   LIG d   1      -5.433  95.775 119.742  0.00  0.00     0.119 C 
BRANCH   8   9
ATOM      9  C   LIG d   1      -4.242  96.658 120.163  0.00  0.00     0.028 C 
ATOM     10  C   LIG d   1      -3.069  96.573 119.173  0.00  0.00     0.006 C 
ENDBRANCH   8   9
BRANCH   8  11
ATOM     11  C   LIG d   1      -6.677  96.642 119.956  0.00  0.00     0.028 C 
ATOM     12  C   LIG d   1      -7.237  97.214 118.644  0.00  0.00     0.006 C 
ENDBRANCH   8  11
ENDBRANCH   7   8
ENDBRANCH   1   7
BRANCH   6  13
ATOM     13  N   LIG d   1      -7.866  93.119 119.627  0.00  0.00    -0.311 N 
ATOM     14  C   LIG d   1      -9.011  93.663 119.216  0.00  0.00     0.210 C 
ATOM     15  C   LIG d   1     -10.217  93.393 120.121  0.00  0.00     0.109 C 
ATOM     16  O   LIG d   1      -9.149  94.316 118.170  0.00  0.00    -0.276 OA
ATOM     17  H   LIG d   1      -7.852  92.578 120.469  0.00  0.00     0.149 HD
ENDBRANCH   6  13
BRANCH   5  18
ATOM     18  N   LIG d   1      -7.335  92.143 116.781  0.00  0.00     0.381 N 
ATOM     19  H   LIG d   1      -6.868  92.119 115.897  0.00  0.00    -0.090 HD
ATOM     20  H   LIG d   1      -7.876  92.989 116.829  0.00  0.00    -0.090 HD
ATOM     21  H   LIG d   1      -7.934  91.352 116.870  0.00  0.00    -0.090 HD
ENDBRANCH   5  18
BRANCH   3  22
ATOM     22  C   LIG d   1      -2.665  92.051 117.843  0.00  0.00     0.382 C 
ATOM     23  O   LIG d   1      -2.470  90.839 117.584  0.00  0.00    -0.241 OA
ATOM     24  O   LIG d   1      -1.704  92.842 117.836  0.00  0.00    -0.241 OA
ENDBRANCH   3  22
TORSDOF 7
ENDMDL
MODEL 8
REMARK VINA RESULT:      -4.7      2.665      4.809
REMARK  7 active torsions:
REMARK  status: ('A' for Active; 'I' for Inactive)
REMARK    1  A    between atoms: C_2  and  C_3 
REMARK    2  A    between atoms: C_3  and  O_6 
REMARK    3  A    between atoms: C_3  and  C_4 
REMARK    4  A    between atoms: C_7  and  O_6 
REMARK    5  A    between atoms: C_9  and  C_10 
REMARK    6  A    between atoms: N_15  and  C_14 
REMARK    7  A    between atoms: N_20  and  C_19 
REMARK       I    between atoms: C_22  and  N_20 
ROOT
ATOM      1  C   LIG d   1      -7.273  93.115 120.185  0.00  0.00     0.161 C 
ATOM      2  C   LIG d   1      -6.665  92.468 119.096  0.00  0.00     0.016 C 
ATOM      3  C   LIG d   1      -6.903  92.823 117.748  0.00  0.00     0.038 C 
ATOM      4  C   LIG d   1      -7.654  93.956 117.402  0.00  0.00     0.028 C 
ATOM      5  C   LIG d   1      -8.695  94.337 118.449  0.00  0.00    -0.047 C 
ATOM      6  C   LIG d   1      -8.008  94.424 119.831  0.00  0.00     0.091 C 
ENDROOT
BRANCH   1   7
ATOM      7  O   LIG d   1      -6.297  93.352 121.219  0.00  0.00    -0.368 OA
BRANCH   7   8
ATOM      8  C   LIG d   1      -4.956  93.668 120.770  0.00  0.00     0.119 C 
BRANCH   8   9
ATOM      9  C   LIG d   1      -3.980  92.780 121.566  0.00  0.00     0.028 C 
ATOM     10  C   LIG d   1      -3.223  91.788 120.667  0.00  0.00     0.006 C 
ENDBRANCH   8   9
BRANCH   8  11
ATOM     11  C   LIG d   1      -4.575  95.108 121.123  0.00  0.00     0.028 C 
ATOM     12  C   LIG d   1      -4.734  96.075 119.938  0.00  0.00     0.006 C 
ENDBRANCH   8  11
ENDBRANCH   7   8
ENDBRANCH   1   7
BRANCH   6  13
ATOM     13  N   LIG d   1      -8.972  94.709 120.926  0.00  0.00    -0.311 N 
ATOM     14  C   LIG d   1     -10.232  94.280 120.923  0.00  0.00     0.210 C 
ATOM     15  C   LIG d   1     -11.062  94.702 122.139  0.00  0.00     0.109 C 
ATOM     16  O   LIG d   1     -10.733  93.562 120.044  0.00  0.00    -0.276 OA
ATOM     17  H   LIG d   1      -8.640  95.260 121.694  0.00  0.00     0.149 HD
ENDBRANCH   6  13
BRANCH   5  18
ATOM     18  N   LIG d   1      -9.308  95.610 118.026  0.00  0.00     0.381 N 
ATOM     19  H   LIG d   1      -9.968  95.441 117.293  0.00  0.00    -0.090 HD
ATOM     20  H   LIG d   1      -8.589  96.214 117.669  0.00  0.00    -0.090 HD
ATOM     21  H   LIG d   1      -9.762  96.043 118.799  0.00  0.00    -0.090 HD
ENDBRANCH   5  18
BRANCH   3  22
ATOM     22  C   LIG d   1      -6.419  92.016 116.729  0.00  0.00     0.382 C 
ATOM     23  O   LIG d   1      -6.223  92.498 115.588  0.00  0.00    -0.241 OA
ATOM     24  O   LIG d   1      -6.218  90.803 116.926  0.00  0.00    -0.241 OA
ENDBRANCH   3  22
TORSDOF 7
ENDMDL
MODEL 9
REMARK VINA RESULT:      -4.6      2.349      4.292
REMARK  7 active torsions:
REMARK  status: ('A' for Active; 'I' for Inactive)
REMARK    1  A    between atoms: C_2  and  C_3 
REMARK    2  A    between atoms: C_3  and  O_6 
REMARK    3  A    between atoms: C_3  and  C_4 
REMARK    4  A    between atoms: C_7  and  O_6 
REMARK    5  A    between atoms: C_9  and  C_10 
REMARK    6  A    between atoms: N_15  and  C_14 
REMARK    7  A    between atoms: N_20  and  C_19 
REMARK       I    between atoms: C_22  and  N_20 
ROOT
ATOM      1  C   LIG d   1      -6.443  93.475 119.930  0.00  0.00     0.161 C 
ATOM      2  C   LIG d   1      -6.207  92.568 118.883  0.00  0.00     0.016 C 
ATOM      3  C   LIG d   1      -6.872  92.629 117.637  0.00  0.00     0.038 C 
ATOM      4  C   LIG d   1      -7.713  93.698 117.297  0.00  0.00     0.028 C 
ATOM      5  C   LIG d   1      -8.368  94.361 118.504  0.00  0.00    -0.047 C 
ATOM      6  C   LIG d   1      -7.275  94.713 119.538  0.00  0.00     0.091 C 
ENDROOT
BRANCH   1   7
ATOM      7  O   LIG d   1      -5.190  93.878 120.518  0.00  0.00    -0.368 OA
BRANCH   7   8
ATOM      8  C   LIG d   1      -4.320  94.678 119.679  0.00  0.00     0.119 C 
BRANCH   8   9
ATOM      9  C   LIG d   1      -3.016  93.884 119.476  0.00  0.00     0.028 C 
ATOM     10  C   LIG d   1      -2.705  93.636 117.990  0.00  0.00     0.006 C 
ENDBRANCH   8   9
BRANCH   8  11
ATOM     11  C   LIG d   1      -3.902  95.972 120.384  0.00  0.00     0.028 C 
ATOM     12  C   LIG d   1      -3.768  97.160 119.418  0.00  0.00     0.006 C 
ENDBRANCH   8  11
ENDBRANCH   7   8
ENDBRANCH   1   7
BRANCH   6  13
ATOM     13  N   LIG d   1      -7.840  95.290 120.786  0.00  0.00    -0.311 N 
ATOM     14  C   LIG d   1      -7.701  96.569 121.131  0.00  0.00     0.210 C 
ATOM     15  C   LIG d   1      -8.344  96.951 122.468  0.00  0.00     0.109 C 
ATOM     16  O   LIG d   1      -7.135  97.430 120.441  0.00  0.00    -0.276 OA
ATOM     17  H   LIG d   1      -8.341  94.668 121.389  0.00  0.00     0.149 HD
ENDBRANCH   6  13
BRANCH   5  18
ATOM     18  N   LIG d   1      -9.106  95.542 118.017  0.00  0.00     0.381 N 
ATOM     19  H   LIG d   1      -9.127  96.245 118.729  0.00  0.00    -0.090 HD
ATOM     20  H   LIG d   1     -10.053  95.272 117.813  0.00  0.00    -0.090 HD
ATOM     21  H   LIG d   1      -8.671  95.902 117.197  0.00  0.00    -0.090 HD
ENDBRANCH   5  18
BRANCH   3  22
ATOM     22  C   LIG d   1      -6.728  91.589 116.730  0.00  0.00     0.382 C 
ATOM     23  O   LIG d   1      -7.396  91.587 115.668  0.00  0.00    -0.241 OA
ATOM     24  O   LIG d   1      -5.971  90.632 116.981  0.00  0.00    -0.241 OA
ENDBRANCH   3  22
TORSDOF 7
ENDMDL
