MODEL 1
REMARK VINA RESULT:      -4.8      0.000      0.000
REMARK  7 active torsions:
REMARK  status: ('A' for Active; 'I' for Inactive)
REMARK    1  A    between atoms: C_2  and  C_3 
REMARK    2  A    between atoms: C_3  and  O_6 
REMARK    3  A    between atoms: C_3  and  C_4 
REMARK    4  A    between atoms: C_7  and  O_6 
REMARK    5  A    between atoms: C_9  and  C_10 
REMARK    6  A    between atoms: N_15  and  C_14 
REMARK    7  A    between atoms: N_20  and  C_19 
REMARK       I    between atoms: C_22  and  N_20 
ROOT
ATOM      1  C   LIG d   1      -4.909  92.812 117.281  0.00  0.00     0.161 C 
ATOM      2  C   LIG d   1      -6.025  92.058 116.883  0.00  0.00     0.016 C 
ATOM      3  C   LIG d   1      -6.000  90.653 116.728  0.00  0.00     0.038 C 
ATOM      4  C   LIG d   1      -4.890  89.884 117.108  0.00  0.00     0.028 C 
ATOM      5  C   LIG d   1      -3.572  90.648 117.037  0.00  0.00    -0.047 C 
ATOM      6  C   LIG d   1      -3.721  91.980 117.808  0.00  0.00     0.091 C 
ENDROOT
BRANCH   1   7
ATOM      7  O   LIG d   1      -5.306  93.793 118.259  0.00  0.00    -0.368 OA
BRANCH   7   8
ATOM      8  C   LIG d   1      -6.570  93.555 118.925  0.00  0.00     0.119 C 
BRANCH   8   9
ATOM      9  C   LIG d   1      -7.299  94.908 119.033  0.00  0.00     0.028 C 
ATOM     10  C   LIG d   1      -7.649  95.498 117.657  0.00  0.00     0.006 C 
ENDBRANCH   8   9
BRANCH   8  11
ATOM     11  C   LIG d   1      -6.361  93.090 120.369  0.00  0.00     0.028 C 
ATOM     12  C   LIG d   1      -6.607  91.584 120.552  0.00  0.00     0.006 C 
ENDBRANCH   8  11
ENDBRANCH   7   8
ENDBRANCH   1   7
BRANCH   6  13
ATOM     13  N   LIG d   1      -2.503  92.827 117.717  0.00  0.00    -0.311 N 
ATOM     14  C   LIG d   1      -1.814  93.237 118.780  0.00  0.00     0.210 C 
ATOM     15  C   LIG d   1      -0.602  94.119 118.464  0.00  0.00     0.109 C 
ATOM     16  O   LIG d   1      -2.073  92.927 119.953  0.00  0.00    -0.276 OA
ATOM     17  H   LIG d   1      -2.204  93.098 116.800  0.00  0.00     0.149 HD
ENDBRANCH   6  13
BRANCH   5  18
ATOM     18  N   LIG d   1      -2.520  89.774 117.591  0.00  0.00     0.381 N 
ATOM     19  H   LIG d   1      -2.873  89.283 118.388  0.00  0.00    -0.090 HD
ATOM     20  H   LIG d   1      -1.747  90.344 117.887  0.00  0.00    -0.090 HD
ATOM     21  H   LIG d   1      -2.217  89.125 116.898  0.00  0.00    -0.090 HD
ENDBRANCH   5  18
BRANCH   3  22
ATOM     22  C   LIG d   1      -7.081  90.006 116.149  0.00  0.00     0.382 C 
ATOM     23  O   LIG d   1      -7.885  90.648 115.431  0.00  0.00    -0.241 OA
ATOM     24  O   LIG d   1      -7.288  88.798 116.371  0.00  0.00    -0.241 OA
ENDBRANCH   3  22
TORSDOF 7
ENDMDL
MODEL 2
REMARK VINA RESULT:      -4.7      1.673      2.543
REMARK  7 active torsions:
REMARK  status: ('A' for Active; 'I' for Inactive)
REMARK    1  A    between atoms: C_2  and  C_3 
REMARK    2  A    between atoms: C_3  and  O_6 
REMARK    3  A    between atoms: C_3  and  C_4 
REMARK    4  A    between atoms: C_7  and  O_6 
REMARK    5  A    between atoms: C_9  and  C_10 
REMARK    6  A    between atoms: N_15  and  C_14 
REMARK    7  A    between atoms: N_20  and  C_19 
REMARK       I    between atoms: C_22  and  N_20 
ROOT
ATOM      1  C   LIG d   1      -6.132  92.728 117.897  0.00  0.00     0.161 C 
ATOM      2  C   LIG d   1      -6.417  91.469 117.345  0.00  0.00     0.016 C 
ATOM      3  C   LIG d   1      -5.420  90.572 116.896  0.00  0.00     0.038 C 
ATOM      4  C   LIG d   1      -4.055  90.813 117.110  0.00  0.00     0.028 C 
ATOM      5  C   LIG d   1      -3.710  92.295 117.206  0.00  0.00    -0.047 C 
ATOM      6  C   LIG d   1      -4.645  92.962 118.240  0.00  0.00     0.091 C 
ENDROOT
BRANCH   1   7
ATOM      7  O   LIG d   1      -6.955  92.950 119.059  0.00  0.00    -0.368 OA
BRANCH   7   8
ATOM      8  C   LIG d   1      -6.320  92.728 120.342  0.00  0.00     0.119 C 
BRANCH   8   9
ATOM      9  C   LIG d   1      -6.955  91.468 120.961  0.00  0.00     0.028 C 
ATOM     10  C   LIG d   1      -8.082  91.805 121.952  0.00  0.00     0.006 C 
ENDBRANCH   8   9
BRANCH   8  11
ATOM     11  C   LIG d   1      -6.632  93.863 121.322  0.00  0.00     0.028 C 
ATOM     12  C   LIG d   1      -7.140  95.133 120.622  0.00  0.00     0.006 C 
ENDBRANCH   8  11
ENDBRANCH   7   8
ENDBRANCH   1   7
BRANCH   6  13
ATOM     13  N   LIG d   1      -4.431  94.430 118.334  0.00  0.00    -0.311 N 
ATOM     14  C   LIG d   1      -3.644  94.999 119.246  0.00  0.00     0.210 C 
ATOM     15  C   LIG d   1      -3.579  96.528 119.180  0.00  0.00     0.109 C 
ATOM     16  O   LIG d   1      -2.968  94.380 120.081  0.00  0.00    -0.276 OA
ATOM     17  H   LIG d   1      -4.917  95.005 117.675  0.00  0.00     0.149 HD
ENDBRANCH   6  13
BRANCH   5  18
ATOM     18  N   LIG d   1      -2.283  92.398 117.566  0.00  0.00     0.381 N 
ATOM     19  H   LIG d   1      -1.807  91.558 117.306  0.00  0.00    -0.090 HD
ATOM     20  H   LIG d   1      -2.206  92.510 118.562  0.00  0.00    -0.090 HD
ATOM     21  H   LIG d   1      -1.870  93.179 117.104  0.00  0.00    -0.090 HD
ENDBRANCH   5  18
BRANCH   3  22
ATOM     22  C   LIG d   1      -5.786  89.436 116.189  0.00  0.00     0.382 C 
ATOM     23  O   LIG d   1      -6.965  89.012 116.250  0.00  0.00    -0.241 OA
ATOM     24  O   LIG d   1      -4.941  88.805 115.527  0.00  0.00    -0.241 OA
ENDBRANCH   3  22
TORSDOF 7
ENDMDL
MODEL 3
REMARK VINA RESULT:      -4.7      2.286      4.280
REMARK  7 active torsions:
REMARK  status: ('A' for Active; 'I' for Inactive)
REMARK    1  A    between atoms: C_2  and  C_3 
REMARK    2  A    between atoms: C_3  and  O_6 
REMARK    3  A    between atoms: C_3  and  C_4 
REMARK    4  A    between atoms: C_7  and  O_6 
REMARK    5  A    between atoms: C_9  and  C_10 
REMARK    6  A    between atoms: N_15  and  C_14 
REMARK    7  A    between atoms: N_20  and  C_19 
REMARK       I    between atoms: C_22  and  N_20 
ROOT
ATOM      1  C   LIG d   1      -4.324  92.636 117.723  0.00  0.00     0.161 C 
ATOM      2  C   LIG d   1      -3.995  91.318 117.366  0.00  0.00     0.016 C 
ATOM      3  C   LIG d   1      -4.779  90.528 116.494  0.00  0.00     0.038 C 
ATOM      4  C   LIG d   1      -5.873  91.060 115.795  0.00  0.00     0.028 C 
ATOM      5  C   LIG d   1      -6.536  92.232 116.509  0.00  0.00    -0.047 C 
ATOM      6  C   LIG d   1      -5.453  93.270 116.883  0.00  0.00     0.091 C 
ENDROOT
BRANCH   1   7
ATOM      7  O   LIG d   1      -3.144  93.463 117.681  0.00  0.00    -0.368 OA
BRANCH   7   8
ATOM      8  C   LIG d   1      -2.413  93.593 118.925  0.00  0.00     0.119 C 
BRANCH   8   9
ATOM      9  C   LIG d   1      -3.096  94.702 119.749  0.00  0.00     0.028 C 
ATOM     10  C   LIG d   1      -3.710  94.169 121.054  0.00  0.00     0.006 C 
ENDBRANCH   8   9
BRANCH   8  11
ATOM     11  C   LIG d   1      -0.985  94.090 118.682  0.00  0.00     0.028 C 
ATOM     12  C   LIG d   1       0.068  93.272 119.446  0.00  0.00     0.006 C 
ENDBRANCH   8  11
ENDBRANCH   7   8
ENDBRANCH   1   7
BRANCH   6  13
ATOM     13  N   LIG d   1      -6.005  94.410 117.661  0.00  0.00    -0.311 N 
ATOM     14  C   LIG d   1      -6.714  94.261 118.778  0.00  0.00     0.210 C 
ATOM     15  C   LIG d   1      -7.206  95.567 119.411  0.00  0.00     0.109 C 
ATOM     16  O   LIG d   1      -6.955  93.173 119.323  0.00  0.00    -0.276 OA
ATOM     17  H   LIG d   1      -5.830  95.330 117.307  0.00  0.00     0.149 HD
ENDBRANCH   6  13
BRANCH   5  18
ATOM     18  N   LIG d   1      -7.571  92.776 115.609  0.00  0.00     0.381 N 
ATOM     19  H   LIG d   1      -8.154  93.416 116.110  0.00  0.00    -0.090 HD
ATOM     20  H   LIG d   1      -8.144  92.019 115.278  0.00  0.00    -0.090 HD
ATOM     21  H   LIG d   1      -7.142  93.239 114.838  0.00  0.00    -0.090 HD
ENDBRANCH   5  18
BRANCH   3  22
ATOM     22  C   LIG d   1      -4.494  89.180 116.344  0.00  0.00     0.382 C 
ATOM     23  O   LIG d   1      -3.663  88.626 117.104  0.00  0.00    -0.241 OA
ATOM     24  O   LIG d   1      -5.024  88.520 115.430  0.00  0.00    -0.241 OA
ENDBRANCH   3  22
TORSDOF 7
ENDMDL
MODEL 4
REMARK VINA RESULT:      -4.6      1.030      1.850
REMARK  7 active torsions:
REMARK  status: ('A' for Active; 'I' for Inactive)
REMARK    1  A    between atoms: C_2  and  C_3 
REMARK    2  A    between atoms: C_3  and  O_6 
REMARK    3  A    between atoms: C_3  and  C_4 
REMARK    4  A    between atoms: C_7  and  O_6 
REMARK    5  A    between atoms: C_9  and  C_10 
REMARK    6  A    between atoms: N_15  and  C_14 
REMARK    7  A    between atoms: N_20  and  C_19 
REMARK       I    between atoms: C_22  and  N_20 
ROOT
ATOM      1  C   LIG d   1      -5.011  92.838 117.341  0.00  0.00     0.161 C 
ATOM      2  C   LIG d   1      -6.114  92.055 116.961  0.00  0.00     0.016 C 
ATOM      3  C   LIG d   1      -6.043  90.657 116.760  0.00  0.00     0.038 C 
ATOM      4  C   LIG d   1      -4.892  89.920 117.074  0.00  0.00     0.028 C 
ATOM      5  C   LIG d   1      -3.606  90.734 116.978  0.00  0.00    -0.047 C 
ATOM      6  C   LIG d   1      -3.774  92.035 117.796  0.00  0.00     0.091 C 
ENDROOT
BRANCH   1   7
ATOM      7  O   LIG d   1      -5.405  93.773 118.365  0.00  0.00    -0.368 OA
BRANCH   7   8
ATOM      8  C   LIG d   1      -5.303  93.303 119.731  0.00  0.00     0.119 C 
BRANCH   8   9
ATOM      9  C   LIG d   1      -6.736  93.091 120.256  0.00  0.00     0.028 C 
ATOM     10  C   LIG d   1      -6.982  91.647 120.725  0.00  0.00     0.006 C 
ENDBRANCH   8   9
BRANCH   8  11
ATOM     11  C   LIG d   1      -4.691  94.370 120.643  0.00  0.00     0.028 C 
ATOM     12  C   LIG d   1      -4.406  95.690 119.908  0.00  0.00     0.006 C 
ENDBRANCH   8  11
ENDBRANCH   7   8
ENDBRANCH   1   7
BRANCH   6  13
ATOM     13  N   LIG d   1      -2.592  92.930 117.687  0.00  0.00    -0.311 N 
ATOM     14  C   LIG d   1      -1.745  93.150 118.690  0.00  0.00     0.210 C 
ATOM     15  C   LIG d   1      -0.605  94.123 118.372  0.00  0.00     0.109 C 
ATOM     16  O   LIG d   1      -1.810  92.608 119.804  0.00  0.00    -0.276 OA
ATOM     17  H   LIG d   1      -2.446  93.387 116.808  0.00  0.00     0.149 HD
ENDBRANCH   6  13
BRANCH   5  18
ATOM     18  N   LIG d   1      -2.503  89.884 117.463  0.00  0.00     0.381 N 
ATOM     19  H   LIG d   1      -1.722  89.955 116.842  0.00  0.00    -0.090 HD
ATOM     20  H   LIG d   1      -2.810  88.928 117.476  0.00  0.00    -0.090 HD
ATOM     21  H   LIG d   1      -2.233  90.166 118.380  0.00  0.00    -0.090 HD
ENDBRANCH   5  18
BRANCH   3  22
ATOM     22  C   LIG d   1      -7.121  89.988 116.201  0.00  0.00     0.382 C 
ATOM     23  O   LIG d   1      -7.291  88.767 116.434  0.00  0.00    -0.241 OA
ATOM     24  O   LIG d   1      -7.901  90.579 115.430  0.00  0.00    -0.241 OA
ENDBRANCH   3  22
TORSDOF 7
ENDMDL
MODEL 5
REMARK VINA RESULT:      -4.6      2.163      3.017
REMARK  7 active torsions:
REMARK  status: ('A' for Active; 'I' for Inactive)
REMARK    1  A    between atoms: C_2  and  C_3 
REMARK    2  A    between atoms: C_3  and  O_6 
REMARK    3  A    between atoms: C_3  and  C_4 
REMARK    4  A    between atoms: C_7  and  O_6 
REMARK    5  A    between atoms: C_9  and  C_10 
REMARK    6  A    between atoms: N_15  and  C_14 
REMARK    7  A    between atoms: N_20  and  C_19 
REMARK       I    between atoms: C_22  and  N_20 
ROOT
ATOM      1  C   LIG d   1      -3.409  92.520 117.544  0.00  0.00     0.161 C 
ATOM      2  C   LIG d   1      -4.682  93.052 117.280  0.00  0.00     0.016 C 
ATOM      3  C   LIG d   1      -5.735  92.303 116.706  0.00  0.00     0.038 C 
ATOM      4  C   LIG d   1      -5.632  90.920 116.496  0.00  0.00     0.028 C 
ATOM      5  C   LIG d   1      -4.199  90.445 116.279  0.00  0.00    -0.047 C 
ATOM      6  C   LIG d   1      -3.313  90.985 117.425  0.00  0.00     0.091 C 
ENDROOT
BRANCH   1   7
ATOM      7  O   LIG d   1      -2.960  92.950 118.845  0.00  0.00    -0.368 OA
BRANCH   7   8
ATOM      8  C   LIG d   1      -3.989  93.414 119.753  0.00  0.00     0.119 C 
BRANCH   8   9
ATOM      9  C   LIG d   1      -3.480  94.714 120.405  0.00  0.00     0.028 C 
ATOM     10  C   LIG d   1      -3.121  95.790 119.366  0.00  0.00     0.006 C 
ENDBRANCH   8   9
BRANCH   8  11
ATOM     11  C   LIG d   1      -4.194  92.433 120.911  0.00  0.00     0.028 C 
ATOM     12  C   LIG d   1      -5.252  91.362 120.604  0.00  0.00     0.006 C 
ENDBRANCH   8  11
ENDBRANCH   7   8
ENDBRANCH   1   7
BRANCH   6  13
ATOM     13  N   LIG d   1      -1.879  90.637 117.244  0.00  0.00    -0.311 N 
ATOM     14  C   LIG d   1      -1.303  89.582 117.819  0.00  0.00     0.210 C 
ATOM     15  C   LIG d   1       0.190  89.417 117.517  0.00  0.00     0.109 C 
ATOM     16  O   LIG d   1      -1.893  88.750 118.524  0.00  0.00    -0.276 OA
ATOM     17  H   LIG d   1      -1.333  91.241 116.662  0.00  0.00     0.149 HD
ENDBRANCH   6  13
BRANCH   5  18
ATOM     18  N   LIG d   1      -4.223  88.972 116.211  0.00  0.00     0.381 N 
ATOM     19  H   LIG d   1      -4.863  88.676 115.501  0.00  0.00    -0.090 HD
ATOM     20  H   LIG d   1      -4.542  88.611 117.093  0.00  0.00    -0.090 HD
ATOM     21  H   LIG d   1      -3.311  88.625 116.011  0.00  0.00    -0.090 HD
ENDBRANCH   5  18
BRANCH   3  22
ATOM     22  C   LIG d   1      -6.894  92.947 116.299  0.00  0.00     0.382 C 
ATOM     23  O   LIG d   1      -7.633  92.419 115.433  0.00  0.00    -0.241 OA
ATOM     24  O   LIG d   1      -7.187  94.068 116.754  0.00  0.00    -0.241 OA
ENDBRANCH   3  22
TORSDOF 7
ENDMDL
MODEL 6
REMARK VINA RESULT:      -4.5      2.116      4.168
REMARK  7 active torsions:
REMARK  status: ('A' for Active; 'I' for Inactive)
REMARK    1  A    between atoms: C_2  and  C_3 
REMARK    2  A    between atoms: C_3  and  O_6 
REMARK    3  A    between atoms: C_3  and  C_4 
REMARK    4  A    between atoms: C_7  and  O_6 
REMARK    5  A    between atoms: C_9  and  C_10 
REMARK    6  A    between atoms: N_15  and  C_14 
REMARK    7  A    between atoms: N_20  and  C_19 
REMARK       I    between atoms: C_22  and  N_20 
ROOT
ATOM      1  C   LIG d   1      -3.036  92.717 117.674  0.00  0.00     0.161 C 
ATOM      2  C   LIG d   1      -4.325  93.266 117.575  0.00  0.00     0.016 C 
ATOM      3  C   LIG d   1      -5.455  92.529 117.149  0.00  0.00     0.038 C 
ATOM      4  C   LIG d   1      -5.399  91.144 116.937  0.00  0.00     0.028 C 
ATOM      5  C   LIG d   1      -4.013  90.648 116.537  0.00  0.00    -0.047 C 
ATOM      6  C   LIG d   1      -2.977  91.180 117.553  0.00  0.00     0.091 C 
ENDROOT
BRANCH   1   7
ATOM      7  O   LIG d   1      -2.415  93.147 118.902  0.00  0.00    -0.368 OA
BRANCH   7   8
ATOM      8  C   LIG d   1      -1.368  94.141 118.772  0.00  0.00     0.119 C 
BRANCH   8   9
ATOM      9  C   LIG d   1      -0.046  93.479 119.205  0.00  0.00     0.028 C 
ATOM     10  C   LIG d   1       0.307  93.777 120.672  0.00  0.00     0.006 C 
ENDBRANCH   8   9
BRANCH   8  11
ATOM     11  C   LIG d   1      -1.579  95.303 119.748  0.00  0.00     0.028 C 
ATOM     12  C   LIG d   1      -2.863  96.097 119.460  0.00  0.00     0.006 C 
ENDBRANCH   8  11
ENDBRANCH   7   8
ENDBRANCH   1   7
BRANCH   6  13
ATOM     13  N   LIG d   1      -1.584  90.811 117.189  0.00  0.00    -0.311 N 
ATOM     14  C   LIG d   1      -0.788  90.087 117.974  0.00  0.00     0.210 C 
ATOM     15  C   LIG d   1       0.616  89.837 117.417  0.00  0.00     0.109 C 
ATOM     16  O   LIG d   1      -1.123  89.600 119.065  0.00  0.00    -0.276 OA
ATOM     17  H   LIG d   1      -1.242  91.138 116.307  0.00  0.00     0.149 HD
ENDBRANCH   6  13
BRANCH   5  18
ATOM     18  N   LIG d   1      -4.066  89.175 116.482  0.00  0.00     0.381 N 
ATOM     19  H   LIG d   1      -3.719  88.791 117.339  0.00  0.00    -0.090 HD
ATOM     20  H   LIG d   1      -3.477  88.856 115.733  0.00  0.00    -0.090 HD
ATOM     21  H   LIG d   1      -5.003  88.872 116.330  0.00  0.00    -0.090 HD
ENDBRANCH   5  18
BRANCH   3  22
ATOM     22  C   LIG d   1      -6.648  93.187 116.893  0.00  0.00     0.382 C 
ATOM     23  O   LIG d   1      -7.360  92.838 115.922  0.00  0.00    -0.241 OA
ATOM     24  O   LIG d   1      -6.999  94.154 117.595  0.00  0.00    -0.241 OA
ENDBRANCH   3  22
TORSDOF 7
ENDMDL
MODEL 7
REMARK VINA RESULT:      -4.5      2.062      4.363
REMARK  7 active torsions:
REMARK  status: ('A' for Active; 'I' for Inactive)
REMARK    1  A    between atoms: C_2  and  C_3 
REMARK    2  A    between atoms: C_3  and  O_6 
REMARK    3  A    between atoms: C_3  and  C_4 
REMARK    4  A    between atoms: C_7  and  O_6 
REMARK    5  A    between atoms: C_9  and  C_10 
REMARK    6  A    between atoms: N_15  and  C_14 
REMARK    7  A    between atoms: N_20  and  C_19 
REMARK       I    between atoms: C_22  and  N_20 
ROOT
ATOM      1  C   LIG d   1      -3.970  92.053 117.815  0.00  0.00     0.161 C 
ATOM      2  C   LIG d   1      -4.280  90.820 117.217  0.00  0.00     0.016 C 
ATOM      3  C   LIG d   1      -5.428  90.609 116.420  0.00  0.00     0.038 C 
ATOM      4  C   LIG d   1      -6.271  91.664 116.039  0.00  0.00     0.028 C 
ATOM      5  C   LIG d   1      -6.277  92.822 117.031  0.00  0.00    -0.047 C 
ATOM      6  C   LIG d   1      -4.818  93.243 117.320  0.00  0.00     0.091 C 
ENDROOT
BRANCH   1   7
ATOM      7  O   LIG d   1      -2.566  92.336 117.651  0.00  0.00    -0.368 OA
BRANCH   7   8
ATOM      8  C   LIG d   1      -1.758  92.267 118.851  0.00  0.00     0.119 C 
BRANCH   8   9
ATOM      9  C   LIG d   1      -0.869  93.526 118.884  0.00  0.00     0.028 C 
ATOM     10  C   LIG d   1       0.452  93.292 119.637  0.00  0.00     0.006 C 
ENDBRANCH   8   9
BRANCH   8  11
ATOM     11  C   LIG d   1      -0.785  91.085 118.801  0.00  0.00     0.028 C 
ATOM     12  C   LIG d   1      -0.535  90.580 117.371  0.00  0.00     0.006 C 
ENDBRANCH   8  11
ENDBRANCH   7   8
ENDBRANCH   1   7
BRANCH   6  13
ATOM     13  N   LIG d   1      -4.730  94.316 118.345  0.00  0.00    -0.311 N 
ATOM     14  C   LIG d   1      -5.222  94.194 119.577  0.00  0.00     0.210 C 
ATOM     15  C   LIG d   1      -5.042  95.426 120.469  0.00  0.00     0.109 C 
ATOM     16  O   LIG d   1      -5.762  93.172 120.025  0.00  0.00    -0.276 OA
ATOM     17  H   LIG d   1      -4.279  95.168 118.076  0.00  0.00     0.149 HD
ENDBRANCH   6  13
BRANCH   5  18
ATOM     18  N   LIG d   1      -7.087  93.907 116.445  0.00  0.00     0.381 N 
ATOM     19  H   LIG d   1      -7.637  93.549 115.690  0.00  0.00    -0.090 HD
ATOM     20  H   LIG d   1      -6.470  94.612 116.080  0.00  0.00    -0.090 HD
ATOM     21  H   LIG d   1      -7.681  94.303 117.140  0.00  0.00    -0.090 HD
ENDBRANCH   5  18
BRANCH   3  22
ATOM     22  C   LIG d   1      -5.765  89.323 116.027  0.00  0.00     0.382 C 
ATOM     23  O   LIG d   1      -4.923  88.608 115.431  0.00  0.00    -0.241 OA
ATOM     24  O   LIG d   1      -6.915  88.883 116.222  0.00  0.00    -0.241 OA
ENDBRANCH   3  22
TORSDOF 7
ENDMDL
MODEL 8
REMARK VINA RESULT:      -4.4      2.165      4.158
REMARK  7 active torsions:
REMARK  status: ('A' for Active; 'I' for Inactive)
REMARK    1  A    between atoms: C_2  and  C_3 
REMARK    2  A    between atoms: C_3  and  O_6 
REMARK    3  A    between atoms: C_3  and  C_4 
REMARK    4  A    between atoms: C_7  and  O_6 
REMARK    5  A    between atoms: C_9  and  C_10 
REMARK    6  A    between atoms: N_15  and  C_14 
REMARK    7  A    between atoms: N_20  and  C_19 
REMARK       I    between atoms: C_22  and  N_20 
ROOT
ATOM      1  C   LIG d   1      -3.913  91.967 117.798  0.00  0.00     0.161 C 
ATOM      2  C   LIG d   1      -4.247  90.743 117.196  0.00  0.00     0.016 C 
ATOM      3  C   LIG d   1      -5.374  90.569 116.360  0.00  0.00     0.038 C 
ATOM      4  C   LIG d   1      -6.164  91.652 115.946  0.00  0.00     0.028 C 
ATOM      5  C   LIG d   1      -6.161  92.816 116.931  0.00  0.00    -0.047 C 
ATOM      6  C   LIG d   1      -4.699  93.185 117.268  0.00  0.00     0.091 C 
ENDROOT
BRANCH   1   7
ATOM      7  O   LIG d   1      -2.494  92.197 117.682  0.00  0.00    -0.368 OA
BRANCH   7   8
ATOM      8  C   LIG d   1      -1.741  92.171 118.920  0.00  0.00     0.119 C 
BRANCH   8   9
ATOM      9  C   LIG d   1      -0.663  91.079 118.782  0.00  0.00     0.028 C 
ATOM     10  C   LIG d   1      -0.473  90.622 117.326  0.00  0.00     0.006 C 
ENDBRANCH   8   9
BRANCH   8  11
ATOM     11  C   LIG d   1      -2.617  91.730 120.096  0.00  0.00     0.028 C 
ATOM     12  C   LIG d   1      -2.201  90.366 120.670  0.00  0.00     0.006 C 
ENDBRANCH   8  11
ENDBRANCH   7   8
ENDBRANCH   1   7
BRANCH   6  13
ATOM     13  N   LIG d   1      -4.607  94.259 118.291  0.00  0.00    -0.311 N 
ATOM     14  C   LIG d   1      -5.222  94.203 119.471  0.00  0.00     0.210 C 
ATOM     15  C   LIG d   1      -5.011  95.426 120.369  0.00  0.00     0.109 C 
ATOM     16  O   LIG d   1      -5.896  93.243 119.872  0.00  0.00    -0.276 OA
ATOM     17  H   LIG d   1      -4.054  95.062 118.061  0.00  0.00     0.149 HD
ENDBRANCH   6  13
BRANCH   5  18
ATOM     18  N   LIG d   1      -6.910  93.926 116.311  0.00  0.00     0.381 N 
ATOM     19  H   LIG d   1      -7.392  94.445 117.018  0.00  0.00    -0.090 HD
ATOM     20  H   LIG d   1      -7.591  93.545 115.679  0.00  0.00    -0.090 HD
ATOM     21  H   LIG d   1      -6.285  94.524 115.817  0.00  0.00    -0.090 HD
ENDBRANCH   5  18
BRANCH   3  22
ATOM     22  C   LIG d   1      -5.744  89.293 115.963  0.00  0.00     0.382 C 
ATOM     23  O   LIG d   1      -6.910  88.883 116.178  0.00  0.00    -0.241 OA
ATOM     24  O   LIG d   1      -4.915  88.532 115.430  0.00  0.00    -0.241 OA
ENDBRANCH   3  22
TORSDOF 7
ENDMDL
MODEL 9
REMARK VINA RESULT:      -4.4      2.283      4.083
REMARK  7 active torsions:
REMARK  status: ('A' for Active; 'I' for Inactive)
REMARK    1  A    between atoms: C_2  and  C_3 
REMARK    2  A    between atoms: C_3  and  O_6 
REMARK    3  A    between atoms: C_3  and  C_4 
REMARK    4  A    between atoms: C_7  and  O_6 
REMARK    5  A    between atoms: C_9  and  C_10 
REMARK    6  A    between atoms: N_15  and  C_14 
REMARK    7  A    between atoms: N_20  and  C_19 
REMARK       I    between atoms: C_22  and  N_20 
ROOT
ATOM      1  C   LIG d   1      -4.342  91.842 118.483  0.00  0.00     0.161 C 
ATOM      2  C   LIG d   1      -4.625  90.686 117.736  0.00  0.00     0.016 C 
ATOM      3  C   LIG d   1      -5.583  90.646 116.697  0.00  0.00     0.038 C 
ATOM      4  C   LIG d   1      -6.219  91.806 116.230  0.00  0.00     0.028 C 
ATOM      5  C   LIG d   1      -6.337  92.899 117.287  0.00  0.00    -0.047 C 
ATOM      6  C   LIG d   1      -4.946  93.143 117.915  0.00  0.00     0.091 C 
ENDROOT
BRANCH   1   7
ATOM      7  O   LIG d   1      -2.917  91.980 118.647  0.00  0.00    -0.368 OA
BRANCH   7   8
ATOM      8  C   LIG d   1      -2.336  91.289 119.780  0.00  0.00     0.119 C 
BRANCH   8   9
ATOM      9  C   LIG d   1      -2.039  92.343 120.864  0.00  0.00     0.028 C 
ATOM     10  C   LIG d   1      -0.915  93.308 120.453  0.00  0.00     0.006 C 
ENDBRANCH   8   9
BRANCH   8  11
ATOM     11  C   LIG d   1      -0.976  90.681 119.423  0.00  0.00     0.028 C 
ATOM     12  C   LIG d   1      -0.780  90.507 117.909  0.00  0.00     0.006 C 
ENDBRANCH   8  11
ENDBRANCH   7   8
ENDBRANCH   1   7
BRANCH   6  13
ATOM     13  N   LIG d   1      -4.988  94.138 119.017  0.00  0.00    -0.311 N 
ATOM     14  C   LIG d   1      -4.050  95.065 119.205  0.00  0.00     0.210 C 
ATOM     15  C   LIG d   1      -4.276  95.979 120.413  0.00  0.00     0.109 C 
ATOM     16  O   LIG d   1      -3.069  95.237 118.466  0.00  0.00    -0.276 OA
ATOM     17  H   LIG d   1      -5.766  94.091 119.645  0.00  0.00     0.149 HD
ENDBRANCH   6  13
BRANCH   5  18
ATOM     18  N   LIG d   1      -6.893  94.097 116.629  0.00  0.00     0.381 N 
ATOM     19  H   LIG d   1      -6.388  94.909 116.922  0.00  0.00    -0.090 HD
ATOM     20  H   LIG d   1      -7.853  94.204 116.907  0.00  0.00    -0.090 HD
ATOM     21  H   LIG d   1      -6.835  94.000 115.639  0.00  0.00    -0.090 HD
ENDBRANCH   5  18
BRANCH   3  22
ATOM     22  C   LIG d   1      -5.942  89.428 116.140  0.00  0.00     0.382 C 
ATOM     23  O   LIG d   1      -7.070  88.935 116.384  0.00  0.00    -0.241 OA
ATOM     24  O   LIG d   1      -5.136  88.795 115.432  0.00  0.00    -0.241 OA
ENDBRANCH   3  22
TORSDOF 7
ENDMDL
