MODEL 1
REMARK VINA RESULT:      -5.4      0.000      0.000
REMARK  7 active torsions:
REMARK  status: ('A' for Active; 'I' for Inactive)
REMARK    1  A    between atoms: C_2  and  C_3 
REMARK    2  A    between atoms: C_3  and  O_6 
REMARK    3  A    between atoms: C_3  and  C_4 
REMARK    4  A    between atoms: C_7  and  O_6 
REMARK    5  A    between atoms: C_9  and  C_10 
REMARK    6  A    between atoms: N_15  and  C_14 
REMARK    7  A    between atoms: N_20  and  C_19 
REMARK       I    between atoms: C_22  and  N_20 
ROOT
ATOM      1  C   LIG d   1      -5.066  92.388 118.881  0.00  0.00     0.161 C 
ATOM      2  C   LIG d   1      -5.087  91.430 117.854  0.00  0.00     0.016 C 
ATOM      3  C   LIG d   1      -6.068  91.402 116.836  0.00  0.00     0.038 C 
ATOM      4  C   LIG d   1      -7.013  92.428 116.689  0.00  0.00     0.028 C 
ATOM      5  C   LIG d   1      -7.341  93.142 117.996  0.00  0.00    -0.047 C 
ATOM      6  C   LIG d   1      -6.023  93.581 118.673  0.00  0.00     0.091 C 
ENDROOT
BRANCH   1   7
ATOM      7  O   LIG d   1      -3.718  92.857 119.083  0.00  0.00    -0.368 OA
BRANCH   7   8
ATOM      8  C   LIG d   1      -2.662  91.910 118.785  0.00  0.00     0.119 C 
BRANCH   8   9
ATOM      9  C   LIG d   1      -2.271  91.221 120.106  0.00  0.00     0.028 C 
ATOM     10  C   LIG d   1      -1.996  89.719 119.926  0.00  0.00     0.006 C 
ENDBRANCH   8   9
BRANCH   8  11
ATOM     11  C   LIG d   1      -1.393  92.623 118.308  0.00  0.00     0.028 C 
ATOM     12  C   LIG d   1      -1.602  94.130 118.089  0.00  0.00     0.006 C 
ENDBRANCH   8  11
ENDBRANCH   7   8
ENDBRANCH   1   7
BRANCH   6  13
ATOM     13  N   LIG d   1      -6.249  94.212 119.999  0.00  0.00    -0.311 N 
ATOM     14  C   LIG d   1      -6.392  95.525 120.171  0.00  0.00     0.210 C 
ATOM     15  C   LIG d   1      -6.596  95.969 121.623  0.00  0.00     0.109 C 
ATOM     16  O   LIG d   1      -6.401  96.362 119.255  0.00  0.00    -0.276 OA
ATOM     17  H   LIG d   1      -6.287  93.604 120.793  0.00  0.00     0.149 HD
ENDBRANCH   6  13
BRANCH   5  18
ATOM     18  N   LIG d   1      -8.231  94.274 117.675  0.00  0.00     0.381 N 
ATOM     19  H   LIG d   1      -8.132  94.519 116.710  0.00  0.00    -0.090 HD
ATOM     20  H   LIG d   1      -7.962  95.067 118.230  0.00  0.00    -0.090 HD
ATOM     21  H   LIG d   1      -9.177  94.030 117.868  0.00  0.00    -0.090 HD
ENDBRANCH   5  18
BRANCH   3  22
ATOM     22  C   LIG d   1      -6.135  90.317 115.975  0.00  0.00     0.382 C 
ATOM     23  O   LIG d   1      -7.224  90.015 115.430  0.00  0.00    -0.241 OA
ATOM     24  O   LIG d   1      -5.130  89.610 115.771  0.00  0.00    -0.241 OA
ENDBRANCH   3  22
TORSDOF 7
ENDMDL
MODEL 2
REMARK VINA RESULT:      -5.1      2.209      4.709
REMARK  7 active torsions:
REMARK  status: ('A' for Active; 'I' for Inactive)
REMARK    1  A    between atoms: C_2  and  C_3 
REMARK    2  A    between atoms: C_3  and  O_6 
REMARK    3  A    between atoms: C_3  and  C_4 
REMARK    4  A    between atoms: C_7  and  O_6 
REMARK    5  A    between atoms: C_9  and  C_10 
REMARK    6  A    between atoms: N_15  and  C_14 
REMARK    7  A    between atoms: N_20  and  C_19 
REMARK       I    between atoms: C_22  and  N_20 
ROOT
ATOM      1  C   LIG d   1      -6.276  93.666 118.495  0.00  0.00     0.161 C 
ATOM      2  C   LIG d   1      -7.094  92.817 117.732  0.00  0.00     0.016 C 
ATOM      3  C   LIG d   1      -6.633  91.621 117.135  0.00  0.00     0.038 C 
ATOM      4  C   LIG d   1      -5.350  91.113 117.388  0.00  0.00     0.028 C 
ATOM      5  C   LIG d   1      -4.330  92.191 117.741  0.00  0.00    -0.047 C 
ATOM      6  C   LIG d   1      -4.903  93.072 118.875  0.00  0.00     0.091 C 
ENDROOT
BRANCH   1   7
ATOM      7  O   LIG d   1      -6.981  94.092 119.678  0.00  0.00    -0.368 OA
BRANCH   7   8
ATOM      8  C   LIG d   1      -7.819  95.265 119.532  0.00  0.00     0.119 C 
BRANCH   8   9
ATOM      9  C   LIG d   1      -6.937  96.398 118.973  0.00  0.00     0.028 C 
ATOM     10  C   LIG d   1      -6.083  97.069 120.062  0.00  0.00     0.006 C 
ENDBRANCH   8   9
BRANCH   8  11
ATOM     11  C   LIG d   1      -8.314  95.769 120.891  0.00  0.00     0.028 C 
ATOM     12  C   LIG d   1      -9.308  94.805 121.558  0.00  0.00     0.006 C 
ENDBRANCH   8  11
ENDBRANCH   7   8
ENDBRANCH   1   7
BRANCH   6  13
ATOM     13  N   LIG d   1      -4.004  94.203 119.223  0.00  0.00    -0.311 N 
ATOM     14  C   LIG d   1      -3.108  94.151 120.207  0.00  0.00     0.210 C 
ATOM     15  C   LIG d   1      -2.297  95.434 120.412  0.00  0.00     0.109 C 
ATOM     16  O   LIG d   1      -2.886  93.153 120.910  0.00  0.00    -0.276 OA
ATOM     17  H   LIG d   1      -4.095  95.041 118.684  0.00  0.00     0.149 HD
ENDBRANCH   6  13
BRANCH   5  18
ATOM     18  N   LIG d   1      -3.075  91.512 118.115  0.00  0.00     0.381 N 
ATOM     19  H   LIG d   1      -3.183  91.065 119.003  0.00  0.00    -0.090 HD
ATOM     20  H   LIG d   1      -2.345  92.198 118.193  0.00  0.00    -0.090 HD
ATOM     21  H   LIG d   1      -2.834  90.837 117.423  0.00  0.00    -0.090 HD
ENDBRANCH   5  18
BRANCH   3  22
ATOM     22  C   LIG d   1      -7.446  90.941 116.241  0.00  0.00     0.382 C 
ATOM     23  O   LIG d   1      -8.293  91.569 115.561  0.00  0.00    -0.241 OA
ATOM     24  O   LIG d   1      -7.374  89.702 116.139  0.00  0.00    -0.241 OA
ENDBRANCH   3  22
TORSDOF 7
ENDMDL
MODEL 3
REMARK VINA RESULT:      -5.0      1.791      2.459
REMARK  7 active torsions:
REMARK  status: ('A' for Active; 'I' for Inactive)
REMARK    1  A    between atoms: C_2  and  C_3 
REMARK    2  A    between atoms: C_3  and  O_6 
REMARK    3  A    between atoms: C_3  and  C_4 
REMARK    4  A    between atoms: C_7  and  O_6 
REMARK    5  A    between atoms: C_9  and  C_10 
REMARK    6  A    between atoms: N_15  and  C_14 
REMARK    7  A    between atoms: N_20  and  C_19 
REMARK       I    between atoms: C_22  and  N_20 
ROOT
ATOM      1  C   LIG d   1      -4.411  91.875 118.548  0.00  0.00     0.161 C 
ATOM      2  C   LIG d   1      -5.196  91.271 117.552  0.00  0.00     0.016 C 
ATOM      3  C   LIG d   1      -6.447  91.778 117.132  0.00  0.00     0.038 C 
ATOM      4  C   LIG d   1      -6.931  93.018 117.577  0.00  0.00     0.028 C 
ATOM      5  C   LIG d   1      -6.411  93.412 118.955  0.00  0.00    -0.047 C 
ATOM      6  C   LIG d   1      -4.870  93.288 118.965  0.00  0.00     0.091 C 
ENDROOT
BRANCH   1   7
ATOM      7  O   LIG d   1      -3.030  91.899 118.134  0.00  0.00    -0.368 OA
BRANCH   7   8
ATOM      8  C   LIG d   1      -2.117  91.089 118.914  0.00  0.00     0.119 C 
BRANCH   8   9
ATOM      9  C   LIG d   1      -0.869  91.946 119.202  0.00  0.00     0.028 C 
ATOM     10  C   LIG d   1       0.278  91.663 118.216  0.00  0.00     0.006 C 
ENDBRANCH   8   9
BRANCH   8  11
ATOM     11  C   LIG d   1      -1.608  89.890 118.109  0.00  0.00     0.028 C 
ATOM     12  C   LIG d   1      -2.525  88.662 118.225  0.00  0.00     0.006 C 
ENDBRANCH   8  11
ENDBRANCH   7   8
ENDBRANCH   1   7
BRANCH   6  13
ATOM     13  N   LIG d   1      -4.287  93.574 120.301  0.00  0.00    -0.311 N 
ATOM     14  C   LIG d   1      -3.333  94.481 120.506  0.00  0.00     0.210 C 
ATOM     15  C   LIG d   1      -2.858  94.605 121.957  0.00  0.00     0.109 C 
ATOM     16  O   LIG d   1      -2.858  95.218 119.628  0.00  0.00    -0.276 OA
ATOM     17  H   LIG d   1      -4.637  93.044 121.075  0.00  0.00     0.149 HD
ENDBRANCH   6  13
BRANCH   5  18
ATOM     18  N   LIG d   1      -6.883  94.781 119.234  0.00  0.00     0.381 N 
ATOM     19  H   LIG d   1      -6.693  95.372 118.449  0.00  0.00    -0.090 HD
ATOM     20  H   LIG d   1      -6.383  95.142 120.028  0.00  0.00    -0.090 HD
ATOM     21  H   LIG d   1      -7.860  94.773 119.424  0.00  0.00    -0.090 HD
ENDBRANCH   5  18
BRANCH   3  22
ATOM     22  C   LIG d   1      -7.247  91.023 116.288  0.00  0.00     0.382 C 
ATOM     23  O   LIG d   1      -8.234  91.551 115.722  0.00  0.00    -0.241 OA
ATOM     24  O   LIG d   1      -7.019  89.810 116.120  0.00  0.00    -0.241 OA
ENDBRANCH   3  22
TORSDOF 7
ENDMDL
MODEL 4
REMARK VINA RESULT:      -4.9      2.179      4.463
REMARK  7 active torsions:
REMARK  status: ('A' for Active; 'I' for Inactive)
REMARK    1  A    between atoms: C_2  and  C_3 
REMARK    2  A    between atoms: C_3  and  O_6 
REMARK    3  A    between atoms: C_3  and  C_4 
REMARK    4  A    between atoms: C_7  and  O_6 
REMARK    5  A    between atoms: C_9  and  C_10 
REMARK    6  A    between atoms: N_15  and  C_14 
REMARK    7  A    between atoms: N_20  and  C_19 
REMARK       I    between atoms: C_22  and  N_20 
ROOT
ATOM      1  C   LIG d   1      -6.134  93.684 118.723  0.00  0.00     0.161 C 
ATOM      2  C   LIG d   1      -6.954  92.840 117.956  0.00  0.00     0.016 C 
ATOM      3  C   LIG d   1      -6.477  91.689 117.287  0.00  0.00     0.038 C 
ATOM      4  C   LIG d   1      -5.168  91.217 117.466  0.00  0.00     0.028 C 
ATOM      5  C   LIG d   1      -4.172  92.315 117.826  0.00  0.00    -0.047 C 
ATOM      6  C   LIG d   1      -4.727  93.124 119.020  0.00  0.00     0.091 C 
ENDROOT
BRANCH   1   7
ATOM      7  O   LIG d   1      -6.804  94.032 119.951  0.00  0.00    -0.368 OA
BRANCH   7   8
ATOM      8  C   LIG d   1      -6.867  95.446 120.264  0.00  0.00     0.119 C 
BRANCH   8   9
ATOM      9  C   LIG d   1      -8.010  95.645 121.278  0.00  0.00     0.028 C 
ATOM     10  C   LIG d   1      -9.195  94.699 121.019  0.00  0.00     0.006 C 
ENDBRANCH   8   9
BRANCH   8  11
ATOM     11  C   LIG d   1      -7.265  96.271 119.037  0.00  0.00     0.028 C 
ATOM     12  C   LIG d   1      -6.291  97.426 118.754  0.00  0.00     0.006 C 
ENDBRANCH   8  11
ENDBRANCH   7   8
ENDBRANCH   1   7
BRANCH   6  13
ATOM     13  N   LIG d   1      -3.854  94.270 119.383  0.00  0.00    -0.311 N 
ATOM     14  C   LIG d   1      -2.921  94.210 120.332  0.00  0.00     0.210 C 
ATOM     15  C   LIG d   1      -2.146  95.511 120.560  0.00  0.00     0.109 C 
ATOM     16  O   LIG d   1      -2.640  93.193 120.984  0.00  0.00    -0.276 OA
ATOM     17  H   LIG d   1      -3.992  95.126 118.882  0.00  0.00     0.149 HD
ENDBRANCH   6  13
BRANCH   5  18
ATOM     18  N   LIG d   1      -2.880  91.666 118.118  0.00  0.00     0.381 N 
ATOM     19  H   LIG d   1      -2.636  91.813 119.077  0.00  0.00    -0.090 HD
ATOM     20  H   LIG d   1      -2.169  92.084 117.544  0.00  0.00    -0.090 HD
ATOM     21  H   LIG d   1      -2.938  90.689 117.929  0.00  0.00    -0.090 HD
ENDBRANCH   5  18
BRANCH   3  22
ATOM     22  C   LIG d   1      -7.302  91.020 116.397  0.00  0.00     0.382 C 
ATOM     23  O   LIG d   1      -8.218  91.640 115.804  0.00  0.00    -0.241 OA
ATOM     24  O   LIG d   1      -7.172  89.795 116.213  0.00  0.00    -0.241 OA
ENDBRANCH   3  22
TORSDOF 7
ENDMDL
MODEL 5
REMARK VINA RESULT:      -4.8      2.762      6.259
REMARK  7 active torsions:
REMARK  status: ('A' for Active; 'I' for Inactive)
REMARK    1  A    between atoms: C_2  and  C_3 
REMARK    2  A    between atoms: C_3  and  O_6 
REMARK    3  A    between atoms: C_3  and  C_4 
REMARK    4  A    between atoms: C_7  and  O_6 
REMARK    5  A    between atoms: C_9  and  C_10 
REMARK    6  A    between atoms: N_15  and  C_14 
REMARK    7  A    between atoms: N_20  and  C_19 
REMARK       I    between atoms: C_22  and  N_20 
ROOT
ATOM      1  C   LIG d   1      -3.675  92.453 119.464  0.00  0.00     0.161 C 
ATOM      2  C   LIG d   1      -3.650  93.857 119.420  0.00  0.00     0.016 C 
ATOM      3  C   LIG d   1      -2.602  94.598 118.827  0.00  0.00     0.038 C 
ATOM      4  C   LIG d   1      -1.575  93.978 118.100  0.00  0.00     0.028 C 
ATOM      5  C   LIG d   1      -1.291  92.549 118.550  0.00  0.00    -0.047 C 
ATOM      6  C   LIG d   1      -2.619  91.759 118.579  0.00  0.00     0.091 C 
ENDROOT
BRANCH   1   7
ATOM      7  O   LIG d   1      -4.996  91.977 119.135  0.00  0.00    -0.368 OA
BRANCH   7   8
ATOM      8  C   LIG d   1      -5.629  92.596 117.989  0.00  0.00     0.119 C 
BRANCH   8   9
ATOM      9  C   LIG d   1      -7.088  92.906 118.377  0.00  0.00     0.028 C 
ATOM     10  C   LIG d   1      -7.467  94.373 118.112  0.00  0.00     0.006 C 
ENDBRANCH   8   9
BRANCH   8  11
ATOM     11  C   LIG d   1      -5.721  91.623 116.810  0.00  0.00     0.028 C 
ATOM     12  C   LIG d   1      -7.087  90.925 116.718  0.00  0.00     0.006 C 
ENDBRANCH   8  11
ENDBRANCH   7   8
ENDBRANCH   1   7
BRANCH   6  13
ATOM     13  N   LIG d   1      -2.444  90.374 119.090  0.00  0.00    -0.311 N 
ATOM     14  C   LIG d   1      -2.854  89.292 118.430  0.00  0.00     0.210 C 
ATOM     15  C   LIG d   1      -2.593  87.962 119.144  0.00  0.00     0.109 C 
ATOM     16  O   LIG d   1      -3.379  89.305 117.306  0.00  0.00    -0.276 OA
ATOM     17  H   LIG d   1      -1.999  90.269 119.980  0.00  0.00     0.149 HD
ENDBRANCH   6  13
BRANCH   5  18
ATOM     18  N   LIG d   1      -0.298  91.978 117.621  0.00  0.00     0.381 N 
ATOM     19  H   LIG d   1      -0.151  91.011 117.835  0.00  0.00    -0.090 HD
ATOM     20  H   LIG d   1       0.574  92.463 117.738  0.00  0.00    -0.090 HD
ATOM     21  H   LIG d   1      -0.616  92.073 116.682  0.00  0.00    -0.090 HD
ENDBRANCH   5  18
BRANCH   3  22
ATOM     22  C   LIG d   1      -2.554  95.973 118.993  0.00  0.00     0.382 C 
ATOM     23  O   LIG d   1      -3.615  96.622 119.159  0.00  0.00    -0.241 OA
ATOM     24  O   LIG d   1      -1.467  96.579 118.935  0.00  0.00    -0.241 OA
ENDBRANCH   3  22
TORSDOF 7
ENDMDL
MODEL 6
REMARK VINA RESULT:      -4.8      2.594      4.794
REMARK  7 active torsions:
REMARK  status: ('A' for Active; 'I' for Inactive)
REMARK    1  A    between atoms: C_2  and  C_3 
REMARK    2  A    between atoms: C_3  and  O_6 
REMARK    3  A    between atoms: C_3  and  C_4 
REMARK    4  A    between atoms: C_7  and  O_6 
REMARK    5  A    between atoms: C_9  and  C_10 
REMARK    6  A    between atoms: N_15  and  C_14 
REMARK    7  A    between atoms: N_20  and  C_19 
REMARK       I    between atoms: C_22  and  N_20 
ROOT
ATOM      1  C   LIG d   1      -4.235  92.410 119.052  0.00  0.00     0.161 C 
ATOM      2  C   LIG d   1      -5.339  93.266 119.203  0.00  0.00     0.016 C 
ATOM      3  C   LIG d   1      -6.495  93.196 118.392  0.00  0.00     0.038 C 
ATOM      4  C   LIG d   1      -6.690  92.160 117.467  0.00  0.00     0.028 C 
ATOM      5  C   LIG d   1      -5.388  91.575 116.930  0.00  0.00    -0.047 C 
ATOM      6  C   LIG d   1      -4.476  91.203 118.121  0.00  0.00     0.091 C 
ENDROOT
BRANCH   1   7
ATOM      7  O   LIG d   1      -3.782  91.962 120.345  0.00  0.00    -0.368 OA
BRANCH   7   8
ATOM      8  C   LIG d   1      -2.720  92.738 120.951  0.00  0.00     0.119 C 
BRANCH   8   9
ATOM      9  C   LIG d   1      -1.729  93.119 119.834  0.00  0.00     0.028 C 
ATOM     10  C   LIG d   1      -0.463  93.800 120.380  0.00  0.00     0.006 C 
ENDBRANCH   8   9
BRANCH   8  11
ATOM     11  C   LIG d   1      -1.910  91.896 121.942  0.00  0.00     0.028 C 
ATOM     12  C   LIG d   1      -1.836  90.414 121.542  0.00  0.00     0.006 C 
ENDBRANCH   8  11
ENDBRANCH   7   8
ENDBRANCH   1   7
BRANCH   6  13
ATOM     13  N   LIG d   1      -3.148  90.700 117.683  0.00  0.00    -0.311 N 
ATOM     14  C   LIG d   1      -2.663  89.510 118.031  0.00  0.00     0.210 C 
ATOM     15  C   LIG d   1      -1.266  89.197 117.487  0.00  0.00     0.109 C 
ATOM     16  O   LIG d   1      -3.270  88.671 118.713  0.00  0.00    -0.276 OA
ATOM     17  H   LIG d   1      -2.601  91.305 117.101  0.00  0.00     0.149 HD
ENDBRANCH   6  13
BRANCH   5  18
ATOM     18  N   LIG d   1      -5.736  90.417 116.084  0.00  0.00     0.381 N 
ATOM     19  H   LIG d   1      -6.676  90.509 115.754  0.00  0.00    -0.090 HD
ATOM     20  H   LIG d   1      -5.676  89.580 116.637  0.00  0.00    -0.090 HD
ATOM     21  H   LIG d   1      -5.109  90.358 115.312  0.00  0.00    -0.090 HD
ENDBRANCH   5  18
BRANCH   3  22
ATOM     22  C   LIG d   1      -7.454  94.194 118.476  0.00  0.00     0.382 C 
ATOM     23  O   LIG d   1      -8.603  93.999 118.012  0.00  0.00    -0.241 OA
ATOM     24  O   LIG d   1      -7.171  95.302 118.969  0.00  0.00    -0.241 OA
ENDBRANCH   3  22
TORSDOF 7
ENDMDL
MODEL 7
REMARK VINA RESULT:      -4.7      1.642      2.502
REMARK  7 active torsions:
REMARK  status: ('A' for Active; 'I' for Inactive)
REMARK    1  A    between atoms: C_2  and  C_3 
REMARK    2  A    between atoms: C_3  and  O_6 
REMARK    3  A    between atoms: C_3  and  C_4 
REMARK    4  A    between atoms: C_7  and  O_6 
REMARK    5  A    between atoms: C_9  and  C_10 
REMARK    6  A    between atoms: N_15  and  C_14 
REMARK    7  A    between atoms: N_20  and  C_19 
REMARK       I    between atoms: C_22  and  N_20 
ROOT
ATOM      1  C   LIG d   1      -5.287  93.002 119.886  0.00  0.00     0.161 C 
ATOM      2  C   LIG d   1      -4.738  91.998 119.070  0.00  0.00     0.016 C 
ATOM      3  C   LIG d   1      -5.276  91.635 117.814  0.00  0.00     0.038 C 
ATOM      4  C   LIG d   1      -6.318  92.360 117.217  0.00  0.00     0.028 C 
ATOM      5  C   LIG d   1      -7.227  93.056 118.224  0.00  0.00    -0.047 C 
ATOM      6  C   LIG d   1      -6.357  93.878 119.201  0.00  0.00     0.091 C 
ENDROOT
BRANCH   1   7
ATOM      7  O   LIG d   1      -4.234  93.825 120.424  0.00  0.00    -0.368 OA
BRANCH   7   8
ATOM      8  C   LIG d   1      -3.903  95.014 119.664  0.00  0.00     0.119 C 
BRANCH   8   9
ATOM      9  C   LIG d   1      -2.469  94.838 119.129  0.00  0.00     0.028 C 
ATOM     10  C   LIG d   1      -1.550  94.127 120.136  0.00  0.00     0.006 C 
ENDBRANCH   8   9
BRANCH   8  11
ATOM     11  C   LIG d   1      -3.851  96.253 120.563  0.00  0.00     0.028 C 
ATOM     12  C   LIG d   1      -4.385  95.985 121.979  0.00  0.00     0.006 C 
ENDBRANCH   8  11
ENDBRANCH   7   8
ENDBRANCH   1   7
BRANCH   6  13
ATOM     13  N   LIG d   1      -7.162  94.524 120.271  0.00  0.00    -0.311 N 
ATOM     14  C   LIG d   1      -7.589  95.784 120.207  0.00  0.00     0.210 C 
ATOM     15  C   LIG d   1      -8.386  96.258 121.426  0.00  0.00     0.109 C 
ATOM     16  O   LIG d   1      -7.412  96.543 119.243  0.00  0.00    -0.276 OA
ATOM     17  H   LIG d   1      -7.378  93.970 121.076  0.00  0.00     0.149 HD
ENDBRANCH   6  13
BRANCH   5  18
ATOM     18  N   LIG d   1      -8.183  93.883 117.464  0.00  0.00     0.381 N 
ATOM     19  H   LIG d   1      -8.144  94.829 117.788  0.00  0.00    -0.090 HD
ATOM     20  H   LIG d   1      -9.112  93.534 117.620  0.00  0.00    -0.090 HD
ATOM     21  H   LIG d   1      -7.966  93.849 116.492  0.00  0.00    -0.090 HD
ENDBRANCH   5  18
BRANCH   3  22
ATOM     22  C   LIG d   1      -4.796  90.510 117.161  0.00  0.00     0.382 C 
ATOM     23  O   LIG d   1      -5.316  90.145 116.079  0.00  0.00    -0.241 OA
ATOM     24  O   LIG d   1      -3.880  89.831 117.661  0.00  0.00    -0.241 OA
ENDBRANCH   3  22
TORSDOF 7
ENDMDL
MODEL 8
REMARK VINA RESULT:      -4.7      1.969      2.756
REMARK  7 active torsions:
REMARK  status: ('A' for Active; 'I' for Inactive)
REMARK    1  A    between atoms: C_2  and  C_3 
REMARK    2  A    between atoms: C_3  and  O_6 
REMARK    3  A    between atoms: C_3  and  C_4 
REMARK    4  A    between atoms: C_7  and  O_6 
REMARK    5  A    between atoms: C_9  and  C_10 
REMARK    6  A    between atoms: N_15  and  C_14 
REMARK    7  A    between atoms: N_20  and  C_19 
REMARK       I    between atoms: C_22  and  N_20 
ROOT
ATOM      1  C   LIG d   1      -3.908  91.502 118.578  0.00  0.00     0.161 C 
ATOM      2  C   LIG d   1      -4.737  90.850 117.650  0.00  0.00     0.016 C 
ATOM      3  C   LIG d   1      -5.974  91.373 117.210  0.00  0.00     0.038 C 
ATOM      4  C   LIG d   1      -6.398  92.664 117.556  0.00  0.00     0.028 C 
ATOM      5  C   LIG d   1      -5.835  93.150 118.888  0.00  0.00    -0.047 C 
ATOM      6  C   LIG d   1      -4.301  92.963 118.882  0.00  0.00     0.091 C 
ENDROOT
BRANCH   1   7
ATOM      7  O   LIG d   1      -2.536  91.433 118.141  0.00  0.00    -0.368 OA
BRANCH   7   8
ATOM      8  C   LIG d   1      -1.722  90.405 118.757  0.00  0.00     0.119 C 
BRANCH   8   9
ATOM      9  C   LIG d   1      -1.889  89.120 117.923  0.00  0.00     0.028 C 
ATOM     10  C   LIG d   1      -0.665  88.194 118.021  0.00  0.00     0.006 C 
ENDBRANCH   8   9
BRANCH   8  11
ATOM     11  C   LIG d   1      -2.235  90.051 120.156  0.00  0.00     0.028 C 
ATOM     12  C   LIG d   1      -1.382  90.665 121.277  0.00  0.00     0.006 C 
ENDBRANCH   8  11
ENDBRANCH   7   8
ENDBRANCH   1   7
BRANCH   6  13
ATOM     13  N   LIG d   1      -3.680  93.335 120.180  0.00  0.00    -0.311 N 
ATOM     14  C   LIG d   1      -2.656  94.181 120.286  0.00  0.00     0.210 C 
ATOM     15  C   LIG d   1      -2.154  94.411 121.715  0.00  0.00     0.109 C 
ATOM     16  O   LIG d   1      -2.137  94.786 119.337  0.00  0.00    -0.276 OA
ATOM     17  H   LIG d   1      -4.059  92.914 121.005  0.00  0.00     0.149 HD
ENDBRANCH   6  13
BRANCH   5  18
ATOM     18  N   LIG d   1      -6.245  94.557 119.058  0.00  0.00     0.381 N 
ATOM     19  H   LIG d   1      -7.177  94.682 118.716  0.00  0.00    -0.090 HD
ATOM     20  H   LIG d   1      -5.630  95.142 118.520  0.00  0.00    -0.090 HD
ATOM     21  H   LIG d   1      -6.200  94.811 120.020  0.00  0.00    -0.090 HD
ENDBRANCH   5  18
BRANCH   3  22
ATOM     22  C   LIG d   1      -6.821  90.584 116.446  0.00  0.00     0.382 C 
ATOM     23  O   LIG d   1      -6.343  89.778 115.612  0.00  0.00    -0.241 OA
ATOM     24  O   LIG d   1      -8.057  90.701 116.548  0.00  0.00    -0.241 OA
ENDBRANCH   3  22
TORSDOF 7
ENDMDL
MODEL 9
REMARK VINA RESULT:      -4.5      3.014      5.957
REMARK  7 active torsions:
REMARK  status: ('A' for Active; 'I' for Inactive)
REMARK    1  A    between atoms: C_2  and  C_3 
REMARK    2  A    between atoms: C_3  and  O_6 
REMARK    3  A    between atoms: C_3  and  C_4 
REMARK    4  A    between atoms: C_7  and  O_6 
REMARK    5  A    between atoms: C_9  and  C_10 
REMARK    6  A    between atoms: N_15  and  C_14 
REMARK    7  A    between atoms: N_20  and  C_19 
REMARK       I    between atoms: C_22  and  N_20 
ROOT
ATOM      1  C   LIG d   1      -1.694  90.943 118.557  0.00  0.00     0.161 C 
ATOM      2  C   LIG d   1      -0.375  91.162 118.989  0.00  0.00     0.016 C 
ATOM      3  C   LIG d   1       0.180  92.449 119.175  0.00  0.00     0.038 C 
ATOM      4  C   LIG d   1      -0.600  93.612 119.085  0.00  0.00     0.028 C 
ATOM      5  C   LIG d   1      -1.803  93.465 118.159  0.00  0.00    -0.047 C 
ATOM      6  C   LIG d   1      -2.592  92.198 118.560  0.00  0.00     0.091 C 
ENDROOT
BRANCH   1   7
ATOM      7  O   LIG d   1      -2.296  89.893 119.338  0.00  0.00    -0.368 OA
BRANCH   7   8
ATOM      8  C   LIG d   1      -1.713  88.575 119.193  0.00  0.00     0.119 C 
BRANCH   8   9
ATOM      9  C   LIG d   1      -1.625  88.271 117.685  0.00  0.00     0.028 C 
ATOM     10  C   LIG d   1      -0.225  87.792 117.263  0.00  0.00     0.006 C 
ENDBRANCH   8   9
BRANCH   8  11
ATOM     11  C   LIG d   1      -2.629  87.492 119.771  0.00  0.00     0.028 C 
ATOM     12  C   LIG d   1      -1.853  86.280 120.310  0.00  0.00     0.006 C 
ENDBRANCH   8  11
ENDBRANCH   7   8
ENDBRANCH   1   7
BRANCH   6  13
ATOM     13  N   LIG d   1      -3.738  91.933 117.652  0.00  0.00    -0.311 N 
ATOM     14  C   LIG d   1      -4.997  92.252 117.948  0.00  0.00     0.210 C 
ATOM     15  C   LIG d   1      -6.028  91.873 116.881  0.00  0.00     0.109 C 
ATOM     16  O   LIG d   1      -5.353  92.843 118.979  0.00  0.00    -0.276 OA
ATOM     17  H   LIG d   1      -3.535  91.484 116.780  0.00  0.00     0.149 HD
ENDBRANCH   6  13
BRANCH   5  18
ATOM     18  N   LIG d   1      -2.601  94.701 118.266  0.00  0.00     0.381 N 
ATOM     19  H   LIG d   1      -2.167  95.330 118.911  0.00  0.00    -0.090 HD
ATOM     20  H   LIG d   1      -3.513  94.469 118.617  0.00  0.00    -0.090 HD
ATOM     21  H   LIG d   1      -2.681  95.133 117.372  0.00  0.00    -0.090 HD
ENDBRANCH   5  18
BRANCH   3  22
ATOM     22  C   LIG d   1       1.539  92.584 119.415  0.00  0.00     0.382 C 
ATOM     23  O   LIG d   1       1.937  93.175 120.448  0.00  0.00    -0.241 OA
ATOM     24  O   LIG d   1       2.371  92.161 118.590  0.00  0.00    -0.241 OA
ENDBRANCH   3  22
TORSDOF 7
ENDMDL
