MODEL 1
REMARK VINA RESULT:      -5.3      0.000      0.000
REMARK  7 active torsions:
REMARK  status: ('A' for Active; 'I' for Inactive)
REMARK    1  A    between atoms: C_2  and  C_3 
REMARK    2  A    between atoms: C_3  and  O_6 
REMARK    3  A    between atoms: C_3  and  C_4 
REMARK    4  A    between atoms: C_7  and  O_6 
REMARK    5  A    between atoms: C_9  and  C_10 
REMARK    6  A    between atoms: N_15  and  C_14 
REMARK    7  A    between atoms: N_20  and  C_19 
REMARK       I    between atoms: C_22  and  N_20 
ROOT
ATOM      1  C   LIG d   1      -5.023  90.796 119.580  0.00  0.00     0.161 C 
ATOM      2  C   LIG d   1      -3.851  90.925 120.345  0.00  0.00     0.016 C 
ATOM      3  C   LIG d   1      -2.563  90.610 119.855  0.00  0.00     0.038 C 
ATOM      4  C   LIG d   1      -2.341  90.285 118.509  0.00  0.00     0.028 C 
ATOM      5  C   LIG d   1      -3.552  89.654 117.830  0.00  0.00    -0.047 C 
ATOM      6  C   LIG d   1      -4.788  90.550 118.075  0.00  0.00     0.091 C 
ENDROOT
BRANCH   1   7
ATOM      7  O   LIG d   1      -5.863  91.951 119.774  0.00  0.00    -0.368 OA
BRANCH   7   8
ATOM      8  C   LIG d   1      -5.684  92.667 121.021  0.00  0.00     0.119 C 
BRANCH   8   9
ATOM      9  C   LIG d   1      -6.945  92.432 121.874  0.00  0.00     0.028 C 
ATOM     10  C   LIG d   1      -6.846  91.158 122.730  0.00  0.00     0.006 C 
ENDBRANCH   8   9
BRANCH   8  11
ATOM     11  C   LIG d   1      -5.625  94.180 120.791  0.00  0.00     0.028 C 
ATOM     12  C   LIG d   1      -4.188  94.721 120.748  0.00  0.00     0.006 C 
ENDBRANCH   8  11
ENDBRANCH   7   8
ENDBRANCH   1   7
BRANCH   6  13
ATOM     13  N   LIG d   1      -6.033  89.962 117.516  0.00  0.00    -0.311 N 
ATOM     14  C   LIG d   1      -6.466  90.202 116.279  0.00  0.00     0.210 C 
ATOM     15  C   LIG d   1      -7.783  89.512 115.910  0.00  0.00     0.109 C 
ATOM     16  O   LIG d   1      -5.868  90.895 115.443  0.00  0.00    -0.276 OA
ATOM     17  H   LIG d   1      -6.564  89.362 118.116  0.00  0.00     0.149 HD
ENDBRANCH   6  13
BRANCH   5  18
ATOM     18  N   LIG d   1      -3.228  89.495 116.400  0.00  0.00     0.381 N 
ATOM     19  H   LIG d   1      -2.961  88.548 116.216  0.00  0.00    -0.090 HD
ATOM     20  H   LIG d   1      -2.452  90.091 116.173  0.00  0.00    -0.090 HD
ATOM     21  H   LIG d   1      -4.017  89.738 115.842  0.00  0.00    -0.090 HD
ENDBRANCH   5  18
BRANCH   3  22
ATOM     22  C   LIG d   1      -1.485  90.579 120.727  0.00  0.00     0.382 C 
ATOM     23  O   LIG d   1      -1.638  90.917 121.925  0.00  0.00    -0.241 OA
ATOM     24  O   LIG d   1      -0.352  90.260 120.319  0.00  0.00    -0.241 OA
ENDBRANCH   3  22
TORSDOF 7
ENDMDL
MODEL 2
REMARK VINA RESULT:      -5.2      1.633      4.676
REMARK  7 active torsions:
REMARK  status: ('A' for Active; 'I' for Inactive)
REMARK    1  A    between atoms: C_2  and  C_3 
REMARK    2  A    between atoms: C_3  and  O_6 
REMARK    3  A    between atoms: C_3  and  C_4 
REMARK    4  A    between atoms: C_7  and  O_6 
REMARK    5  A    between atoms: C_9  and  C_10 
REMARK    6  A    between atoms: N_15  and  C_14 
REMARK    7  A    between atoms: N_20  and  C_19 
REMARK       I    between atoms: C_22  and  N_20 
ROOT
ATOM      1  C   LIG d   1      -4.352  91.068 119.445  0.00  0.00     0.161 C 
ATOM      2  C   LIG d   1      -5.346  90.786 118.493  0.00  0.00     0.016 C 
ATOM      3  C   LIG d   1      -5.079  90.175 117.246  0.00  0.00     0.038 C 
ATOM      4  C   LIG d   1      -3.812  89.663 116.928  0.00  0.00     0.028 C 
ATOM      5  C   LIG d   1      -2.672  90.376 117.648  0.00  0.00    -0.047 C 
ATOM      6  C   LIG d   1      -2.982  90.417 119.162  0.00  0.00     0.091 C 
ENDROOT
BRANCH   1   7
ATOM      7  O   LIG d   1      -4.818  90.704 120.759  0.00  0.00    -0.368 OA
BRANCH   7   8
ATOM      8  C   LIG d   1      -5.144  91.803 121.647  0.00  0.00     0.119 C 
BRANCH   8   9
ATOM      9  C   LIG d   1      -6.670  92.008 121.589  0.00  0.00     0.028 C 
ATOM     10  C   LIG d   1      -7.061  93.296 120.845  0.00  0.00     0.006 C 
ENDBRANCH   8   9
BRANCH   8  11
ATOM     11  C   LIG d   1      -4.539  93.119 121.149  0.00  0.00     0.028 C 
ATOM     12  C   LIG d   1      -3.494  93.697 122.117  0.00  0.00     0.006 C 
ENDBRANCH   8  11
ENDBRANCH   7   8
ENDBRANCH   1   7
BRANCH   6  13
ATOM     13  N   LIG d   1      -1.958  91.171 119.930  0.00  0.00    -0.311 N 
ATOM     14  C   LIG d   1      -0.903  90.597 120.505  0.00  0.00     0.210 C 
ATOM     15  C   LIG d   1       0.020  91.554 121.266  0.00  0.00     0.109 C 
ATOM     16  O   LIG d   1      -0.625  89.391 120.429  0.00  0.00    -0.276 OA
ATOM     17  H   LIG d   1      -2.089  92.160 120.016  0.00  0.00     0.149 HD
ENDBRANCH   6  13
BRANCH   5  18
ATOM     18  N   LIG d   1      -1.425  89.655 117.332  0.00  0.00     0.381 N 
ATOM     19  H   LIG d   1      -1.538  89.139 116.483  0.00  0.00    -0.090 HD
ATOM     20  H   LIG d   1      -1.229  89.004 118.073  0.00  0.00    -0.090 HD
ATOM     21  H   LIG d   1      -0.672  90.300 117.240  0.00  0.00    -0.090 HD
ENDBRANCH   5  18
BRANCH   3  22
ATOM     22  C   LIG d   1      -6.077  90.107 116.286  0.00  0.00     0.382 C 
ATOM     23  O   LIG d   1      -6.842  89.113 116.247  0.00  0.00    -0.241 OA
ATOM     24  O   LIG d   1      -6.193  91.004 115.431  0.00  0.00    -0.241 OA
ENDBRANCH   3  22
TORSDOF 7
ENDMDL
MODEL 3
REMARK VINA RESULT:      -5.0      3.037      5.564
REMARK  7 active torsions:
REMARK  status: ('A' for Active; 'I' for Inactive)
REMARK    1  A    between atoms: C_2  and  C_3 
REMARK    2  A    between atoms: C_3  and  O_6 
REMARK    3  A    between atoms: C_3  and  C_4 
REMARK    4  A    between atoms: C_7  and  O_6 
REMARK    5  A    between atoms: C_9  and  C_10 
REMARK    6  A    between atoms: N_15  and  C_14 
REMARK    7  A    between atoms: N_20  and  C_19 
REMARK       I    between atoms: C_22  and  N_20 
ROOT
ATOM      1  C   LIG d   1      -1.005  91.408 117.964  0.00  0.00     0.161 C 
ATOM      2  C   LIG d   1      -0.037  92.120 118.692  0.00  0.00     0.016 C 
ATOM      3  C   LIG d   1      -0.344  92.927 119.812  0.00  0.00     0.038 C 
ATOM      4  C   LIG d   1      -1.628  92.957 120.375  0.00  0.00     0.028 C 
ATOM      5  C   LIG d   1      -2.736  92.653 119.373  0.00  0.00    -0.047 C 
ATOM      6  C   LIG d   1      -2.395  91.340 118.630  0.00  0.00     0.091 C 
ENDROOT
BRANCH   1   7
ATOM      7  O   LIG d   1      -0.522  90.081 117.676  0.00  0.00    -0.368 OA
BRANCH   7   8
ATOM      8  C   LIG d   1       0.559  89.601 118.513  0.00  0.00     0.119 C 
BRANCH   8   9
ATOM      9  C   LIG d   1       1.605  88.948 117.588  0.00  0.00     0.028 C 
ATOM     10  C   LIG d   1       2.531  89.982 116.928  0.00  0.00     0.006 C 
ENDBRANCH   8   9
BRANCH   8  11
ATOM     11  C   LIG d   1       0.087  88.481 119.445  0.00  0.00     0.028 C 
ATOM     12  C   LIG d   1      -0.436  89.008 120.791  0.00  0.00     0.006 C 
ENDBRANCH   8  11
ENDBRANCH   7   8
ENDBRANCH   1   7
BRANCH   6  13
ATOM     13  N   LIG d   1      -3.386  91.014 117.572  0.00  0.00    -0.311 N 
ATOM     14  C   LIG d   1      -4.421  90.198 117.763  0.00  0.00     0.210 C 
ATOM     15  C   LIG d   1      -5.309  89.982 116.534  0.00  0.00     0.109 C 
ATOM     16  O   LIG d   1      -4.706  89.658 118.842  0.00  0.00    -0.276 OA
ATOM     17  H   LIG d   1      -3.248  91.434 116.673  0.00  0.00     0.149 HD
ENDBRANCH   6  13
BRANCH   5  18
ATOM     18  N   LIG d   1      -4.006  92.581 120.120  0.00  0.00     0.381 N 
ATOM     19  H   LIG d   1      -4.761  92.878 119.534  0.00  0.00    -0.090 HD
ATOM     20  H   LIG d   1      -3.955  93.203 120.908  0.00  0.00    -0.090 HD
ATOM     21  H   LIG d   1      -4.166  91.649 120.433  0.00  0.00    -0.090 HD
ENDBRANCH   5  18
BRANCH   3  22
ATOM     22  C   LIG d   1       0.633  93.746 120.357  0.00  0.00     0.382 C 
ATOM     23  O   LIG d   1       0.339  94.904 120.739  0.00  0.00    -0.241 OA
ATOM     24  O   LIG d   1       1.815  93.358 120.429  0.00  0.00    -0.241 OA
ENDBRANCH   3  22
TORSDOF 7
ENDMDL
MODEL 4
REMARK VINA RESULT:      -4.7      4.609      7.967
REMARK  7 active torsions:
REMARK  status: ('A' for Active; 'I' for Inactive)
REMARK    1  A    between atoms: C_2  and  C_3 
REMARK    2  A    between atoms: C_3  and  O_6 
REMARK    3  A    between atoms: C_3  and  C_4 
REMARK    4  A    between atoms: C_7  and  O_6 
REMARK    5  A    between atoms: C_9  and  C_10 
REMARK    6  A    between atoms: N_15  and  C_14 
REMARK    7  A    between atoms: N_20  and  C_19 
REMARK       I    between atoms: C_22  and  N_20 
ROOT
ATOM      1  C   LIG d   1       0.581  90.029 117.809  0.00  0.00     0.161 C 
ATOM      2  C   LIG d   1      -0.709  89.485 117.695  0.00  0.00     0.016 C 
ATOM      3  C   LIG d   1      -1.859  90.086 118.255  0.00  0.00     0.038 C 
ATOM      4  C   LIG d   1      -1.819  91.359 118.843  0.00  0.00     0.028 C 
ATOM      5  C   LIG d   1      -0.455  91.714 119.426  0.00  0.00    -0.047 C 
ATOM      6  C   LIG d   1       0.629  91.473 118.350  0.00  0.00     0.091 C 
ENDROOT
BRANCH   1   7
ATOM      7  O   LIG d   1       1.260  89.947 116.540  0.00  0.00    -0.368 OA
BRANCH   7   8
ATOM      8  C   LIG d   1       2.170  88.832 116.374  0.00  0.00     0.119 C 
BRANCH   8   9
ATOM      9  C   LIG d   1       2.714  88.468 117.769  0.00  0.00     0.028 C 
ATOM     10  C   LIG d   1       2.532  86.977 118.099  0.00  0.00     0.006 C 
ENDBRANCH   8   9
BRANCH   8  11
ATOM     11  C   LIG d   1       3.398  89.232 115.551  0.00  0.00     0.028 C 
ATOM     12  C   LIG d   1       4.636  89.500 116.420  0.00  0.00     0.006 C 
ENDBRANCH   8  11
ENDBRANCH   7   8
ENDBRANCH   1   7
BRANCH   6  13
ATOM     13  N   LIG d   1       2.002  91.715 118.865  0.00  0.00    -0.311 N 
ATOM     14  C   LIG d   1       2.970  92.271 118.137  0.00  0.00     0.210 C 
ATOM     15  C   LIG d   1       4.317  92.411 118.853  0.00  0.00     0.109 C 
ATOM     16  O   LIG d   1       2.831  92.690 116.978  0.00  0.00    -0.276 OA
ATOM     17  H   LIG d   1       2.192  91.434 119.806  0.00  0.00     0.149 HD
ENDBRANCH   6  13
BRANCH   5  18
ATOM     18  N   LIG d   1      -0.516  93.116 119.881  0.00  0.00     0.381 N 
ATOM     19  H   LIG d   1      -0.758  93.146 120.852  0.00  0.00    -0.090 HD
ATOM     20  H   LIG d   1      -1.230  93.595 119.362  0.00  0.00    -0.090 HD
ATOM     21  H   LIG d   1       0.365  93.559 119.738  0.00  0.00    -0.090 HD
ENDBRANCH   5  18
BRANCH   3  22
ATOM     22  C   LIG d   1      -3.061  89.394 118.266  0.00  0.00     0.382 C 
ATOM     23  O   LIG d   1      -3.344  88.646 119.233  0.00  0.00    -0.241 OA
ATOM     24  O   LIG d   1      -3.844  89.472 117.301  0.00  0.00    -0.241 OA
ENDBRANCH   3  22
TORSDOF 7
ENDMDL
MODEL 5
REMARK VINA RESULT:      -4.7      2.471      5.972
REMARK  7 active torsions:
REMARK  status: ('A' for Active; 'I' for Inactive)
REMARK    1  A    between atoms: C_2  and  C_3 
REMARK    2  A    between atoms: C_3  and  O_6 
REMARK    3  A    between atoms: C_3  and  C_4 
REMARK    4  A    between atoms: C_7  and  O_6 
REMARK    5  A    between atoms: C_9  and  C_10 
REMARK    6  A    between atoms: N_15  and  C_14 
REMARK    7  A    between atoms: N_20  and  C_19 
REMARK       I    between atoms: C_22  and  N_20 
ROOT
ATOM      1  C   LIG d   1      -5.050  90.540 120.256  0.00  0.00     0.161 C 
ATOM      2  C   LIG d   1      -6.077  91.319 119.697  0.00  0.00     0.016 C 
ATOM      3  C   LIG d   1      -6.365  92.640 120.111  0.00  0.00     0.038 C 
ATOM      4  C   LIG d   1      -5.543  93.330 121.014  0.00  0.00     0.028 C 
ATOM      5  C   LIG d   1      -4.796  92.412 121.976  0.00  0.00    -0.047 C 
ATOM      6  C   LIG d   1      -4.071  91.315 121.163  0.00  0.00     0.091 C 
ENDROOT
BRANCH   1   7
ATOM      7  O   LIG d   1      -4.329  89.859 119.209  0.00  0.00    -0.368 OA
BRANCH   7   8
ATOM      8  C   LIG d   1      -3.966  90.661 118.059  0.00  0.00     0.119 C 
BRANCH   8   9
ATOM      9  C   LIG d   1      -4.214  89.806 116.801  0.00  0.00     0.028 C 
ATOM     10  C   LIG d   1      -5.672  89.886 116.316  0.00  0.00     0.006 C 
ENDBRANCH   8   9
BRANCH   8  11
ATOM     11  C   LIG d   1      -2.466  90.972 118.048  0.00  0.00     0.028 C 
ATOM     12  C   LIG d   1      -1.611  89.768 117.620  0.00  0.00     0.006 C 
ENDBRANCH   8  11
ENDBRANCH   7   8
ENDBRANCH   1   7
BRANCH   6  13
ATOM     13  N   LIG d   1      -3.385  90.325 122.033  0.00  0.00    -0.311 N 
ATOM     14  C   LIG d   1      -2.082  90.058 121.954  0.00  0.00     0.210 C 
ATOM     15  C   LIG d   1      -1.581  88.989 122.930  0.00  0.00     0.109 C 
ATOM     16  O   LIG d   1      -1.289  90.629 121.190  0.00  0.00    -0.276 OA
ATOM     17  H   LIG d   1      -3.948  89.839 122.703  0.00  0.00     0.149 HD
ENDBRANCH   6  13
BRANCH   5  18
ATOM     18  N   LIG d   1      -3.874  93.250 122.766  0.00  0.00     0.381 N 
ATOM     19  H   LIG d   1      -4.139  94.212 122.687  0.00  0.00    -0.090 HD
ATOM     20  H   LIG d   1      -2.945  93.148 122.398  0.00  0.00    -0.090 HD
ATOM     21  H   LIG d   1      -3.893  92.970 123.722  0.00  0.00    -0.090 HD
ENDBRANCH   5  18
BRANCH   3  22
ATOM     22  C   LIG d   1      -7.511  93.270 119.651  0.00  0.00     0.382 C 
ATOM     23  O   LIG d   1      -8.265  92.683 118.837  0.00  0.00    -0.241 OA
ATOM     24  O   LIG d   1      -7.778  94.434 120.003  0.00  0.00    -0.241 OA
ENDBRANCH   3  22
TORSDOF 7
ENDMDL
MODEL 6
REMARK VINA RESULT:      -4.7      4.078      7.484
REMARK  7 active torsions:
REMARK  status: ('A' for Active; 'I' for Inactive)
REMARK    1  A    between atoms: C_2  and  C_3 
REMARK    2  A    between atoms: C_3  and  O_6 
REMARK    3  A    between atoms: C_3  and  C_4 
REMARK    4  A    between atoms: C_7  and  O_6 
REMARK    5  A    between atoms: C_9  and  C_10 
REMARK    6  A    between atoms: N_15  and  C_14 
REMARK    7  A    between atoms: N_20  and  C_19 
REMARK       I    between atoms: C_22  and  N_20 
ROOT
ATOM      1  C   LIG d   1      -0.248  91.104 118.614  0.00  0.00     0.161 C 
ATOM      2  C   LIG d   1      -1.311  90.455 117.963  0.00  0.00     0.016 C 
ATOM      3  C   LIG d   1      -2.671  90.705 118.255  0.00  0.00     0.038 C 
ATOM      4  C   LIG d   1      -3.067  91.739 119.117  0.00  0.00     0.028 C 
ATOM      5  C   LIG d   1      -2.021  92.079 120.174  0.00  0.00    -0.047 C 
ATOM      6  C   LIG d   1      -0.662  92.314 119.477  0.00  0.00     0.091 C 
ENDROOT
BRANCH   1   7
ATOM      7  O   LIG d   1       0.749  91.494 117.650  0.00  0.00    -0.368 OA
BRANCH   7   8
ATOM      8  C   LIG d   1       2.054  90.882 117.799  0.00  0.00     0.119 C 
BRANCH   8   9
ATOM      9  C   LIG d   1       3.108  91.941 117.425  0.00  0.00     0.028 C 
ATOM     10  C   LIG d   1       3.718  92.624 118.660  0.00  0.00     0.006 C 
ENDBRANCH   8   9
BRANCH   8  11
ATOM     11  C   LIG d   1       2.252  89.741 116.796  0.00  0.00     0.028 C 
ATOM     12  C   LIG d   1       3.323  90.055 115.740  0.00  0.00     0.006 C 
ENDBRANCH   8  11
ENDBRANCH   7   8
ENDBRANCH   1   7
BRANCH   6  13
ATOM     13  N   LIG d   1       0.435  92.570 120.447  0.00  0.00    -0.311 N 
ATOM     14  C   LIG d   1       0.803  93.791 120.833  0.00  0.00     0.210 C 
ATOM     15  C   LIG d   1       1.970  93.831 121.825  0.00  0.00     0.109 C 
ATOM     16  O   LIG d   1       0.252  94.842 120.472  0.00  0.00    -0.276 OA
ATOM     17  H   LIG d   1       0.916  91.772 120.814  0.00  0.00     0.149 HD
ENDBRANCH   6  13
BRANCH   5  18
ATOM     18  N   LIG d   1      -2.504  93.261 120.914  0.00  0.00     0.381 N 
ATOM     19  H   LIG d   1      -2.046  93.315 121.801  0.00  0.00    -0.090 HD
ATOM     20  H   LIG d   1      -3.491  93.163 121.074  0.00  0.00    -0.090 HD
ATOM     21  H   LIG d   1      -2.325  94.088 120.388  0.00  0.00    -0.090 HD
ENDBRANCH   5  18
BRANCH   3  22
ATOM     22  C   LIG d   1      -3.652  89.890 117.711  0.00  0.00     0.382 C 
ATOM     23  O   LIG d   1      -4.699  89.650 118.360  0.00  0.00    -0.241 OA
ATOM     24  O   LIG d   1      -3.484  89.355 116.599  0.00  0.00    -0.241 OA
ENDBRANCH   3  22
TORSDOF 7
ENDMDL
MODEL 7
REMARK VINA RESULT:      -4.6      4.135      6.179
REMARK  7 active torsions:
REMARK  status: ('A' for Active; 'I' for Inactive)
REMARK    1  A    between atoms: C_2  and  C_3 
REMARK    2  A    between atoms: C_3  and  O_6 
REMARK    3  A    between atoms: C_3  and  C_4 
REMARK    4  A    between atoms: C_7  and  O_6 
REMARK    5  A    between atoms: C_9  and  C_10 
REMARK    6  A    between atoms: N_15  and  C_14 
REMARK    7  A    between atoms: N_20  and  C_19 
REMARK       I    between atoms: C_22  and  N_20 
ROOT
ATOM      1  C   LIG d   1       0.282  90.144 119.473  0.00  0.00     0.161 C 
ATOM      2  C   LIG d   1      -0.253  91.256 120.145  0.00  0.00     0.016 C 
ATOM      3  C   LIG d   1       0.133  92.589 119.874  0.00  0.00     0.038 C 
ATOM      4  C   LIG d   1       0.975  92.913 118.800  0.00  0.00     0.028 C 
ATOM      5  C   LIG d   1       1.930  91.787 118.418  0.00  0.00    -0.047 C 
ATOM      6  C   LIG d   1       1.119  90.486 118.223  0.00  0.00     0.091 C 
ENDROOT
BRANCH   1   7
ATOM      7  O   LIG d   1      -0.774  89.224 119.133  0.00  0.00    -0.368 OA
BRANCH   7   8
ATOM      8  C   LIG d   1      -2.090  89.803 118.952  0.00  0.00     0.119 C 
BRANCH   8   9
ATOM      9  C   LIG d   1      -3.080  88.975 119.793  0.00  0.00     0.028 C 
ATOM     10  C   LIG d   1      -2.498  87.615 120.215  0.00  0.00     0.006 C 
ENDBRANCH   8   9
BRANCH   8  11
ATOM     11  C   LIG d   1      -2.568  89.658 117.504  0.00  0.00     0.028 C 
ATOM     12  C   LIG d   1      -4.014  90.138 117.303  0.00  0.00     0.006 C 
ENDBRANCH   8  11
ENDBRANCH   7   8
ENDBRANCH   1   7
BRANCH   6  13
ATOM     13  N   LIG d   1       1.988  89.316 117.930  0.00  0.00    -0.311 N 
ATOM     14  C   LIG d   1       2.388  88.989 116.702  0.00  0.00     0.210 C 
ATOM     15  C   LIG d   1       3.262  87.734 116.619  0.00  0.00     0.109 C 
ATOM     16  O   LIG d   1       2.129  89.639 115.678  0.00  0.00    -0.276 OA
ATOM     17  H   LIG d   1       2.271  88.752 118.707  0.00  0.00     0.149 HD
ENDBRANCH   6  13
BRANCH   5  18
ATOM     18  N   LIG d   1       2.651  92.208 117.202  0.00  0.00     0.381 N 
ATOM     19  H   LIG d   1       3.473  92.719 117.454  0.00  0.00    -0.090 HD
ATOM     20  H   LIG d   1       2.055  92.813 116.664  0.00  0.00    -0.090 HD
ATOM     21  H   LIG d   1       2.901  91.410 116.660  0.00  0.00    -0.090 HD
ENDBRANCH   5  18
BRANCH   3  22
ATOM     22  C   LIG d   1      -0.294  93.611 120.708  0.00  0.00     0.382 C 
ATOM     23  O   LIG d   1       0.124  94.781 120.531  0.00  0.00    -0.241 OA
ATOM     24  O   LIG d   1      -1.058  93.370 121.662  0.00  0.00    -0.241 OA
ENDBRANCH   3  22
TORSDOF 7
ENDMDL
MODEL 8
REMARK VINA RESULT:      -4.6      3.086      5.387
REMARK  7 active torsions:
REMARK  status: ('A' for Active; 'I' for Inactive)
REMARK    1  A    between atoms: C_2  and  C_3 
REMARK    2  A    between atoms: C_3  and  O_6 
REMARK    3  A    between atoms: C_3  and  C_4 
REMARK    4  A    between atoms: C_7  and  O_6 
REMARK    5  A    between atoms: C_9  and  C_10 
REMARK    6  A    between atoms: N_15  and  C_14 
REMARK    7  A    between atoms: N_20  and  C_19 
REMARK       I    between atoms: C_22  and  N_20 
ROOT
ATOM      1  C   LIG d   1      -1.597  90.635 118.530  0.00  0.00     0.161 C 
ATOM      2  C   LIG d   1      -0.626  89.827 117.915  0.00  0.00     0.016 C 
ATOM      3  C   LIG d   1       0.744  90.169 117.853  0.00  0.00     0.038 C 
ATOM      4  C   LIG d   1       1.264  91.277 118.538  0.00  0.00     0.028 C 
ATOM      5  C   LIG d   1       0.245  92.392 118.747  0.00  0.00    -0.047 C 
ATOM      6  C   LIG d   1      -1.032  91.793 119.379  0.00  0.00     0.091 C 
ENDROOT
BRANCH   1   7
ATOM      7  O   LIG d   1      -2.482  89.818 119.322  0.00  0.00    -0.368 OA
BRANCH   7   8
ATOM      8  C   LIG d   1      -3.854  89.734 118.862  0.00  0.00     0.119 C 
BRANCH   8   9
ATOM      9  C   LIG d   1      -3.949  90.522 117.542  0.00  0.00     0.028 C 
ATOM     10  C   LIG d   1      -4.626  89.713 116.422  0.00  0.00     0.006 C 
ENDBRANCH   8   9
BRANCH   8  11
ATOM     11  C   LIG d   1      -4.809  90.442 119.827  0.00  0.00     0.028 C 
ATOM     12  C   LIG d   1      -4.346  90.361 121.290  0.00  0.00     0.006 C 
ENDBRANCH   8  11
ENDBRANCH   7   8
ENDBRANCH   1   7
BRANCH   6  13
ATOM     13  N   LIG d   1      -2.112  92.801 119.540  0.00  0.00    -0.311 N 
ATOM     14  C   LIG d   1      -2.306  93.495 120.660  0.00  0.00     0.210 C 
ATOM     15  C   LIG d   1      -3.488  94.469 120.621  0.00  0.00     0.109 C 
ATOM     16  O   LIG d   1      -1.592  93.420 121.671  0.00  0.00    -0.276 OA
ATOM     17  H   LIG d   1      -2.719  92.948 118.758  0.00  0.00     0.149 HD
ENDBRANCH   6  13
BRANCH   5  18
ATOM     18  N   LIG d   1       0.879  93.422 119.592  0.00  0.00     0.381 N 
ATOM     19  H   LIG d   1       0.774  93.180 120.557  0.00  0.00    -0.090 HD
ATOM     20  H   LIG d   1       0.416  94.301 119.435  0.00  0.00    -0.090 HD
ATOM     21  H   LIG d   1       1.845  93.502 119.365  0.00  0.00    -0.090 HD
ENDBRANCH   5  18
BRANCH   3  22
ATOM     22  C   LIG d   1       1.604  89.419 117.065  0.00  0.00     0.382 C 
ATOM     23  O   LIG d   1       2.031  88.314 117.479  0.00  0.00    -0.241 OA
ATOM     24  O   LIG d   1       1.994  89.854 115.964  0.00  0.00    -0.241 OA
ENDBRANCH   3  22
TORSDOF 7
ENDMDL
MODEL 9
REMARK VINA RESULT:      -4.3      2.638      6.056
REMARK  7 active torsions:
REMARK  status: ('A' for Active; 'I' for Inactive)
REMARK    1  A    between atoms: C_2  and  C_3 
REMARK    2  A    between atoms: C_3  and  O_6 
REMARK    3  A    between atoms: C_3  and  C_4 
REMARK    4  A    between atoms: C_7  and  O_6 
REMARK    5  A    between atoms: C_9  and  C_10 
REMARK    6  A    between atoms: N_15  and  C_14 
REMARK    7  A    between atoms: N_20  and  C_19 
REMARK       I    between atoms: C_22  and  N_20 
ROOT
ATOM      1  C   LIG d   1      -4.842  91.581 120.965  0.00  0.00     0.161 C 
ATOM      2  C   LIG d   1      -6.006  92.314 120.680  0.00  0.00     0.016 C 
ATOM      3  C   LIG d   1      -6.043  93.726 120.626  0.00  0.00     0.038 C 
ATOM      4  C   LIG d   1      -4.877  94.502 120.705  0.00  0.00     0.028 C 
ATOM      5  C   LIG d   1      -3.757  93.833 121.495  0.00  0.00    -0.047 C 
ATOM      6  C   LIG d   1      -3.538  92.406 120.945  0.00  0.00     0.091 C 
ENDROOT
BRANCH   1   7
ATOM      7  O   LIG d   1      -4.739  90.458 120.067  0.00  0.00    -0.368 OA
BRANCH   7   8
ATOM      8  C   LIG d   1      -4.122  90.723 118.783  0.00  0.00     0.119 C 
BRANCH   8   9
ATOM      9  C   LIG d   1      -5.182  90.456 117.697  0.00  0.00     0.028 C 
ATOM     10  C   LIG d   1      -4.592  89.752 116.463  0.00  0.00     0.006 C 
ENDBRANCH   8   9
BRANCH   8  11
ATOM     11  C   LIG d   1      -2.988  89.735 118.496  0.00  0.00     0.028 C 
ATOM     12  C   LIG d   1      -2.838  88.665 119.589  0.00  0.00     0.006 C 
ENDBRANCH   8  11
ENDBRANCH   7   8
ENDBRANCH   1   7
BRANCH   6  13
ATOM     13  N   LIG d   1      -2.517  91.651 121.717  0.00  0.00    -0.311 N 
ATOM     14  C   LIG d   1      -1.242  91.550 121.344  0.00  0.00     0.210 C 
ATOM     15  C   LIG d   1      -0.361  90.709 122.273  0.00  0.00     0.109 C 
ATOM     16  O   LIG d   1      -0.751  92.103 120.349  0.00  0.00    -0.276 OA
ATOM     17  H   LIG d   1      -2.823  91.196 122.555  0.00  0.00     0.149 HD
ENDBRANCH   6  13
BRANCH   5  18
ATOM     18  N   LIG d   1      -2.560  94.687 121.382  0.00  0.00     0.381 N 
ATOM     19  H   LIG d   1      -2.747  95.452 120.765  0.00  0.00    -0.090 HD
ATOM     20  H   LIG d   1      -1.809  94.144 120.993  0.00  0.00    -0.090 HD
ATOM     21  H   LIG d   1      -2.300  95.031 122.280  0.00  0.00    -0.090 HD
ENDBRANCH   5  18
BRANCH   3  22
ATOM     22  C   LIG d   1      -7.263  94.379 120.530  0.00  0.00     0.382 C 
ATOM     23  O   LIG d   1      -8.071  94.068 119.622  0.00  0.00    -0.241 OA
ATOM     24  O   LIG d   1      -7.547  95.304 121.314  0.00  0.00    -0.241 OA
ENDBRANCH   3  22
TORSDOF 7
ENDMDL
