MODEL 1
REMARK VINA RESULT:      -5.6      0.000      0.000
REMARK  7 active torsions:
REMARK  status: ('A' for Active; 'I' for Inactive)
REMARK    1  A    between atoms: C_2  and  C_3 
REMARK    2  A    between atoms: C_3  and  O_6 
REMARK    3  A    between atoms: C_3  and  C_4 
REMARK    4  A    between atoms: C_7  and  O_6 
REMARK    5  A    between atoms: C_9  and  C_10 
REMARK    6  A    between atoms: N_15  and  C_14 
REMARK    7  A    between atoms: N_20  and  C_19 
REMARK       I    between atoms: C_22  and  N_20 
ROOT
ATOM      1  C   LIG d   1      -5.390  91.584 118.765  0.00  0.00     0.161 C 
ATOM      2  C   LIG d   1      -6.566  91.098 118.170  0.00  0.00     0.016 C 
ATOM      3  C   LIG d   1      -6.575  90.303 117.000  0.00  0.00     0.038 C 
ATOM      4  C   LIG d   1      -5.392  89.810 116.430  0.00  0.00     0.028 C 
ATOM      5  C   LIG d   1      -4.176  90.689 116.703  0.00  0.00    -0.047 C 
ATOM      6  C   LIG d   1      -4.086  90.964 118.221  0.00  0.00     0.091 C 
ENDROOT
BRANCH   1   7
ATOM      7  O   LIG d   1      -5.463  91.420 120.196  0.00  0.00    -0.368 OA
BRANCH   7   8
ATOM      8  C   LIG d   1      -5.546  92.640 120.973  0.00  0.00     0.119 C 
BRANCH   8   9
ATOM      9  C   LIG d   1      -5.764  93.804 119.987  0.00  0.00     0.028 C 
ATOM     10  C   LIG d   1      -4.912  95.036 120.336  0.00  0.00     0.006 C 
ENDBRANCH   8   9
BRANCH   8  11
ATOM     11  C   LIG d   1      -4.218  92.945 121.673  0.00  0.00     0.028 C 
ATOM     12  C   LIG d   1      -3.533  91.685 122.226  0.00  0.00     0.006 C 
ENDBRANCH   8  11
ENDBRANCH   7   8
ENDBRANCH   1   7
BRANCH   6  13
ATOM     13  N   LIG d   1      -2.972  91.886 118.565  0.00  0.00    -0.311 N 
ATOM     14  C   LIG d   1      -1.771  91.469 118.960  0.00  0.00     0.210 C 
ATOM     15  C   LIG d   1      -0.773  92.585 119.285  0.00  0.00     0.109 C 
ATOM     16  O   LIG d   1      -1.426  90.280 119.042  0.00  0.00    -0.276 OA
ATOM     17  H   LIG d   1      -3.155  92.868 118.496  0.00  0.00     0.149 HD
ENDBRANCH   6  13
BRANCH   5  18
ATOM     18  N   LIG d   1      -2.992  89.989 116.170  0.00  0.00     0.381 N 
ATOM     19  H   LIG d   1      -3.219  89.553 115.299  0.00  0.00    -0.090 HD
ATOM     20  H   LIG d   1      -2.718  89.273 116.820  0.00  0.00    -0.090 HD
ATOM     21  H   LIG d   1      -2.243  90.634 116.042  0.00  0.00    -0.090 HD
ENDBRANCH   5  18
BRANCH   3  22
ATOM     22  C   LIG d   1      -7.777  90.026 116.367  0.00  0.00     0.382 C 
ATOM     23  O   LIG d   1      -8.175  90.760 115.430  0.00  0.00    -0.241 OA
ATOM     24  O   LIG d   1      -8.489  89.079 116.749  0.00  0.00    -0.241 OA
ENDBRANCH   3  22
TORSDOF 7
ENDMDL
MODEL 2
REMARK VINA RESULT:      -5.6      0.621      1.814
REMARK  7 active torsions:
REMARK  status: ('A' for Active; 'I' for Inactive)
REMARK    1  A    between atoms: C_2  and  C_3 
REMARK    2  A    between atoms: C_3  and  O_6 
REMARK    3  A    between atoms: C_3  and  C_4 
REMARK    4  A    between atoms: C_7  and  O_6 
REMARK    5  A    between atoms: C_9  and  C_10 
REMARK    6  A    between atoms: N_15  and  C_14 
REMARK    7  A    between atoms: N_20  and  C_19 
REMARK       I    between atoms: C_22  and  N_20 
ROOT
ATOM      1  C   LIG d   1      -5.387  91.730 118.651  0.00  0.00     0.161 C 
ATOM      2  C   LIG d   1      -6.565  91.213 118.088  0.00  0.00     0.016 C 
ATOM      3  C   LIG d   1      -6.577  90.316 116.995  0.00  0.00     0.038 C 
ATOM      4  C   LIG d   1      -5.398  89.755 116.484  0.00  0.00     0.028 C 
ATOM      5  C   LIG d   1      -4.169  90.634 116.690  0.00  0.00    -0.047 C 
ATOM      6  C   LIG d   1      -4.088  91.043 118.179  0.00  0.00     0.091 C 
ENDROOT
BRANCH   1   7
ATOM      7  O   LIG d   1      -5.477  91.697 120.089  0.00  0.00    -0.368 OA
BRANCH   7   8
ATOM      8  C   LIG d   1      -5.154  92.930 120.777  0.00  0.00     0.119 C 
BRANCH   8   9
ATOM      9  C   LIG d   1      -4.143  92.590 121.889  0.00  0.00     0.028 C 
ATOM     10  C   LIG d   1      -3.865  91.080 121.987  0.00  0.00     0.006 C 
ENDBRANCH   8   9
BRANCH   8  11
ATOM     11  C   LIG d   1      -6.377  93.501 121.501  0.00  0.00     0.028 C 
ATOM     12  C   LIG d   1      -7.228  94.413 120.604  0.00  0.00     0.006 C 
ENDBRANCH   8  11
ENDBRANCH   7   8
ENDBRANCH   1   7
BRANCH   6  13
ATOM     13  N   LIG d   1      -2.962  91.973 118.451  0.00  0.00    -0.311 N 
ATOM     14  C   LIG d   1      -1.771  91.573 118.893  0.00  0.00     0.210 C 
ATOM     15  C   LIG d   1      -0.757  92.697 119.128  0.00  0.00     0.109 C 
ATOM     16  O   LIG d   1      -1.448  90.391 119.082  0.00  0.00    -0.276 OA
ATOM     17  H   LIG d   1      -3.128  92.948 118.295  0.00  0.00     0.149 HD
ENDBRANCH   6  13
BRANCH   5  18
ATOM     18  N   LIG d   1      -2.992  89.870 116.236  0.00  0.00     0.381 N 
ATOM     19  H   LIG d   1      -2.236  89.999 116.878  0.00  0.00    -0.090 HD
ATOM     20  H   LIG d   1      -2.706  90.217 115.337  0.00  0.00    -0.090 HD
ATOM     21  H   LIG d   1      -3.219  88.902 116.169  0.00  0.00    -0.090 HD
ENDBRANCH   5  18
BRANCH   3  22
ATOM     22  C   LIG d   1      -7.778  90.004 116.375  0.00  0.00     0.382 C 
ATOM     23  O   LIG d   1      -8.424  88.991 116.736  0.00  0.00    -0.241 OA
ATOM     24  O   LIG d   1      -8.200  90.697 115.431  0.00  0.00    -0.241 OA
ENDBRANCH   3  22
TORSDOF 7
ENDMDL
MODEL 3
REMARK VINA RESULT:      -5.0      1.307      1.921
REMARK  7 active torsions:
REMARK  status: ('A' for Active; 'I' for Inactive)
REMARK    1  A    between atoms: C_2  and  C_3 
REMARK    2  A    between atoms: C_3  and  O_6 
REMARK    3  A    between atoms: C_3  and  C_4 
REMARK    4  A    between atoms: C_7  and  O_6 
REMARK    5  A    between atoms: C_9  and  C_10 
REMARK    6  A    between atoms: N_15  and  C_14 
REMARK    7  A    between atoms: N_20  and  C_19 
REMARK       I    between atoms: C_22  and  N_20 
ROOT
ATOM      1  C   LIG d   1      -4.137  91.837 119.347  0.00  0.00     0.161 C 
ATOM      2  C   LIG d   1      -5.383  91.414 118.856  0.00  0.00     0.016 C 
ATOM      3  C   LIG d   1      -5.532  90.608 117.704  0.00  0.00     0.038 C 
ATOM      4  C   LIG d   1      -4.429  90.041 117.048  0.00  0.00     0.028 C 
ATOM      5  C   LIG d   1      -3.147  90.851 117.208  0.00  0.00    -0.047 C 
ATOM      6  C   LIG d   1      -2.918  91.137 118.710  0.00  0.00     0.091 C 
ENDROOT
BRANCH   1   7
ATOM      7  O   LIG d   1      -4.103  91.694 120.781  0.00  0.00    -0.368 OA
BRANCH   7   8
ATOM      8  C   LIG d   1      -3.815  92.898 121.535  0.00  0.00     0.119 C 
BRANCH   8   9
ATOM      9  C   LIG d   1      -4.823  92.967 122.698  0.00  0.00     0.028 C 
ATOM     10  C   LIG d   1      -5.883  91.855 122.624  0.00  0.00     0.006 C 
ENDBRANCH   8   9
BRANCH   8  11
ATOM     11  C   LIG d   1      -4.074  94.155 120.699  0.00  0.00     0.028 C 
ATOM     12  C   LIG d   1      -2.832  95.051 120.571  0.00  0.00     0.006 C 
ENDBRANCH   8  11
ENDBRANCH   7   8
ENDBRANCH   1   7
BRANCH   6  13
ATOM     13  N   LIG d   1      -1.730  91.997 118.948  0.00  0.00    -0.311 N 
ATOM     14  C   LIG d   1      -0.521  91.514 119.231  0.00  0.00     0.210 C 
ATOM     15  C   LIG d   1       0.561  92.574 119.461  0.00  0.00     0.109 C 
ATOM     16  O   LIG d   1      -0.235  90.309 119.281  0.00  0.00    -0.276 OA
ATOM     17  H   LIG d   1      -1.865  92.987 118.896  0.00  0.00     0.149 HD
ENDBRANCH   6  13
BRANCH   5  18
ATOM     18  N   LIG d   1      -2.052  90.077 116.594  0.00  0.00     0.381 N 
ATOM     19  H   LIG d   1      -1.251  90.088 117.194  0.00  0.00    -0.090 HD
ATOM     20  H   LIG d   1      -1.798  90.508 115.722  0.00  0.00    -0.090 HD
ATOM     21  H   LIG d   1      -2.344  89.138 116.435  0.00  0.00    -0.090 HD
ENDBRANCH   5  18
BRANCH   3  22
ATOM     22  C   LIG d   1      -6.795  90.394 117.174  0.00  0.00     0.382 C 
ATOM     23  O   LIG d   1      -7.715  91.218 117.394  0.00  0.00    -0.241 OA
ATOM     24  O   LIG d   1      -7.038  89.365 116.515  0.00  0.00    -0.241 OA
ENDBRANCH   3  22
TORSDOF 7
ENDMDL
MODEL 4
REMARK VINA RESULT:      -5.0      2.177      4.177
REMARK  7 active torsions:
REMARK  status: ('A' for Active; 'I' for Inactive)
REMARK    1  A    between atoms: C_2  and  C_3 
REMARK    2  A    between atoms: C_3  and  O_6 
REMARK    3  A    between atoms: C_3  and  C_4 
REMARK    4  A    between atoms: C_7  and  O_6 
REMARK    5  A    between atoms: C_9  and  C_10 
REMARK    6  A    between atoms: N_15  and  C_14 
REMARK    7  A    between atoms: N_20  and  C_19 
REMARK       I    between atoms: C_22  and  N_20 
ROOT
ATOM      1  C   LIG d   1      -3.537  90.594 118.009  0.00  0.00     0.161 C 
ATOM      2  C   LIG d   1      -4.555  90.371 117.067  0.00  0.00     0.016 C 
ATOM      3  C   LIG d   1      -5.890  90.800 117.247  0.00  0.00     0.038 C 
ATOM      4  C   LIG d   1      -6.267  91.619 118.321  0.00  0.00     0.028 C 
ATOM      5  C   LIG d   1      -5.386  91.445 119.554  0.00  0.00    -0.047 C 
ATOM      6  C   LIG d   1      -3.904  91.583 119.136  0.00  0.00     0.091 C 
ENDROOT
BRANCH   1   7
ATOM      7  O   LIG d   1      -2.335  91.023 117.338  0.00  0.00    -0.368 OA
BRANCH   7   8
ATOM      8  C   LIG d   1      -1.284  90.033 117.221  0.00  0.00     0.119 C 
BRANCH   8   9
ATOM      9  C   LIG d   1      -1.614  88.888 118.198  0.00  0.00     0.028 C 
ATOM     10  C   LIG d   1      -0.580  88.766 119.329  0.00  0.00     0.006 C 
ENDBRANCH   8   9
BRANCH   8  11
ATOM     11  C   LIG d   1       0.062  90.592 117.692  0.00  0.00     0.028 C 
ATOM     12  C   LIG d   1       1.147  90.530 116.604  0.00  0.00     0.006 C 
ENDBRANCH   8  11
ENDBRANCH   7   8
ENDBRANCH   1   7
BRANCH   6  13
ATOM     13  N   LIG d   1      -2.971  91.342 120.267  0.00  0.00    -0.311 N 
ATOM     14  C   LIG d   1      -1.923  92.121 120.531  0.00  0.00     0.210 C 
ATOM     15  C   LIG d   1      -1.079  91.683 121.732  0.00  0.00     0.109 C 
ATOM     16  O   LIG d   1      -1.632  93.151 119.905  0.00  0.00    -0.276 OA
ATOM     17  H   LIG d   1      -3.151  90.545 120.845  0.00  0.00     0.149 HD
ENDBRANCH   6  13
BRANCH   5  18
ATOM     18  N   LIG d   1      -5.803  92.454 120.546  0.00  0.00     0.381 N 
ATOM     19  H   LIG d   1      -5.236  92.377 121.366  0.00  0.00    -0.090 HD
ATOM     20  H   LIG d   1      -6.758  92.280 120.805  0.00  0.00    -0.090 HD
ATOM     21  H   LIG d   1      -5.717  93.368 120.159  0.00  0.00    -0.090 HD
ENDBRANCH   5  18
BRANCH   3  22
ATOM     22  C   LIG d   1      -6.873  90.375 116.366  0.00  0.00     0.382 C 
ATOM     23  O   LIG d   1      -8.063  90.733 116.535  0.00  0.00    -0.241 OA
ATOM     24  O   LIG d   1      -6.592  89.602 115.431  0.00  0.00    -0.241 OA
ENDBRANCH   3  22
TORSDOF 7
ENDMDL
MODEL 5
REMARK VINA RESULT:      -4.7      3.651      7.507
REMARK  7 active torsions:
REMARK  status: ('A' for Active; 'I' for Inactive)
REMARK    1  A    between atoms: C_2  and  C_3 
REMARK    2  A    between atoms: C_3  and  O_6 
REMARK    3  A    between atoms: C_3  and  C_4 
REMARK    4  A    between atoms: C_7  and  O_6 
REMARK    5  A    between atoms: C_9  and  C_10 
REMARK    6  A    between atoms: N_15  and  C_14 
REMARK    7  A    between atoms: N_20  and  C_19 
REMARK       I    between atoms: C_22  and  N_20 
ROOT
ATOM      1  C   LIG d   1       0.084  90.065 116.404  0.00  0.00     0.161 C 
ATOM      2  C   LIG d   1       1.290  90.664 116.803  0.00  0.00     0.016 C 
ATOM      3  C   LIG d   1       1.365  91.700 117.762  0.00  0.00     0.038 C 
ATOM      4  C   LIG d   1       0.246  92.106 118.504  0.00  0.00     0.028 C 
ATOM      5  C   LIG d   1      -1.076  91.882 117.777  0.00  0.00    -0.047 C 
ATOM      6  C   LIG d   1      -1.135  90.418 117.283  0.00  0.00     0.091 C 
ENDROOT
BRANCH   1   7
ATOM      7  O   LIG d   1       0.250  88.636 116.329  0.00  0.00    -0.368 OA
BRANCH   7   8
ATOM      8  C   LIG d   1      -0.209  87.879 117.476  0.00  0.00     0.119 C 
BRANCH   8   9
ATOM      9  C   LIG d   1       0.986  87.726 118.437  0.00  0.00     0.028 C 
ATOM     10  C   LIG d   1       0.738  88.405 119.795  0.00  0.00     0.006 C 
ENDBRANCH   8   9
BRANCH   8  11
ATOM     11  C   LIG d   1      -0.599  86.451 117.083  0.00  0.00     0.028 C 
ATOM     12  C   LIG d   1      -1.886  86.395 116.246  0.00  0.00     0.006 C 
ENDBRANCH   8  11
ENDBRANCH   7   8
ENDBRANCH   1   7
BRANCH   6  13
ATOM     13  N   LIG d   1      -2.359  90.137 116.488  0.00  0.00    -0.311 N 
ATOM     14  C   LIG d   1      -3.471  89.626 117.012  0.00  0.00     0.210 C 
ATOM     15  C   LIG d   1      -4.610  89.395 116.013  0.00  0.00     0.109 C 
ATOM     16  O   LIG d   1      -3.635  89.372 118.215  0.00  0.00    -0.276 OA
ATOM     17  H   LIG d   1      -2.324  90.342 115.509  0.00  0.00     0.149 HD
ENDBRANCH   6  13
BRANCH   5  18
ATOM     18  N   LIG d   1      -2.163  92.219 118.715  0.00  0.00     0.381 N 
ATOM     19  H   LIG d   1      -2.429  93.176 118.596  0.00  0.00    -0.090 HD
ATOM     20  H   LIG d   1      -1.830  92.099 119.656  0.00  0.00    -0.090 HD
ATOM     21  H   LIG d   1      -2.948  91.627 118.555  0.00  0.00    -0.090 HD
ENDBRANCH   5  18
BRANCH   3  22
ATOM     22  C   LIG d   1       2.564  92.369 117.959  0.00  0.00     0.382 C 
ATOM     23  O   LIG d   1       3.357  92.530 117.001  0.00  0.00    -0.241 OA
ATOM     24  O   LIG d   1       2.882  92.775 119.093  0.00  0.00    -0.241 OA
ENDBRANCH   3  22
TORSDOF 7
ENDMDL
MODEL 6
REMARK VINA RESULT:      -4.6      3.058      6.600
REMARK  7 active torsions:
REMARK  status: ('A' for Active; 'I' for Inactive)
REMARK    1  A    between atoms: C_2  and  C_3 
REMARK    2  A    between atoms: C_3  and  O_6 
REMARK    3  A    between atoms: C_3  and  C_4 
REMARK    4  A    between atoms: C_7  and  O_6 
REMARK    5  A    between atoms: C_9  and  C_10 
REMARK    6  A    between atoms: N_15  and  C_14 
REMARK    7  A    between atoms: N_20  and  C_19 
REMARK       I    between atoms: C_22  and  N_20 
ROOT
ATOM      1  C   LIG d   1      -1.048  91.928 117.913  0.00  0.00     0.161 C 
ATOM      2  C   LIG d   1       0.134  91.419 117.350  0.00  0.00     0.016 C 
ATOM      3  C   LIG d   1       1.423  91.903 117.676  0.00  0.00     0.038 C 
ATOM      4  C   LIG d   1       1.627  92.832 118.706  0.00  0.00     0.028 C 
ATOM      5  C   LIG d   1       0.426  93.740 118.951  0.00  0.00    -0.047 C 
ATOM      6  C   LIG d   1      -0.837  92.865 119.121  0.00  0.00     0.091 C 
ENDROOT
BRANCH   1   7
ATOM      7  O   LIG d   1      -1.926  90.842 118.269  0.00  0.00    -0.368 OA
BRANCH   7   8
ATOM      8  C   LIG d   1      -3.271  90.910 117.735  0.00  0.00     0.119 C 
BRANCH   8   9
ATOM      9  C   LIG d   1      -4.240  90.519 118.868  0.00  0.00     0.028 C 
ATOM     10  C   LIG d   1      -3.541  89.736 119.993  0.00  0.00     0.006 C 
ENDBRANCH   8   9
BRANCH   8  11
ATOM     11  C   LIG d   1      -3.489  89.864 116.638  0.00  0.00     0.028 C 
ATOM     12  C   LIG d   1      -4.824  90.044 115.898  0.00  0.00     0.006 C 
ENDBRANCH   8  11
ENDBRANCH   7   8
ENDBRANCH   1   7
BRANCH   6  13
ATOM     13  N   LIG d   1      -2.072  93.678 119.280  0.00  0.00    -0.311 N 
ATOM     14  C   LIG d   1      -2.822  93.663 120.380  0.00  0.00     0.210 C 
ATOM     15  C   LIG d   1      -4.063  94.559 120.329  0.00  0.00     0.109 C 
ATOM     16  O   LIG d   1      -2.561  93.016 121.406  0.00  0.00    -0.276 OA
ATOM     17  H   LIG d   1      -2.341  94.255 118.508  0.00  0.00     0.149 HD
ENDBRANCH   6  13
BRANCH   5  18
ATOM     18  N   LIG d   1       0.723  94.563 120.138  0.00  0.00     0.381 N 
ATOM     19  H   LIG d   1       1.565  95.083 119.987  0.00  0.00    -0.090 HD
ATOM     20  H   LIG d   1       0.864  93.957 120.927  0.00  0.00    -0.090 HD
ATOM     21  H   LIG d   1      -0.032  95.187 120.318  0.00  0.00    -0.090 HD
ENDBRANCH   5  18
BRANCH   3  22
ATOM     22  C   LIG d   1       2.520  91.485 116.939  0.00  0.00     0.382 C 
ATOM     23  O   LIG d   1       3.534  92.219 116.854  0.00  0.00    -0.241 OA
ATOM     24  O   LIG d   1       2.492  90.404 116.321  0.00  0.00    -0.241 OA
ENDBRANCH   3  22
TORSDOF 7
ENDMDL
MODEL 7
REMARK VINA RESULT:      -4.3      2.080      2.780
REMARK  7 active torsions:
REMARK  status: ('A' for Active; 'I' for Inactive)
REMARK    1  A    between atoms: C_2  and  C_3 
REMARK    2  A    between atoms: C_3  and  O_6 
REMARK    3  A    between atoms: C_3  and  C_4 
REMARK    4  A    between atoms: C_7  and  O_6 
REMARK    5  A    between atoms: C_9  and  C_10 
REMARK    6  A    between atoms: N_15  and  C_14 
REMARK    7  A    between atoms: N_20  and  C_19 
REMARK       I    between atoms: C_22  and  N_20 
ROOT
ATOM      1  C   LIG d   1      -5.529  92.963 119.755  0.00  0.00     0.161 C 
ATOM      2  C   LIG d   1      -6.303  92.206 118.860  0.00  0.00     0.016 C 
ATOM      3  C   LIG d   1      -5.827  91.045 118.209  0.00  0.00     0.038 C 
ATOM      4  C   LIG d   1      -4.587  90.472 118.528  0.00  0.00     0.028 C 
ATOM      5  C   LIG d   1      -3.570  91.481 119.051  0.00  0.00    -0.047 C 
ATOM      6  C   LIG d   1      -4.213  92.292 120.200  0.00  0.00     0.091 C 
ENDROOT
BRANCH   1   7
ATOM      7  O   LIG d   1      -6.322  93.321 120.904  0.00  0.00    -0.368 OA
BRANCH   7   8
ATOM      8  C   LIG d   1      -7.168  94.489 120.757  0.00  0.00     0.119 C 
BRANCH   8   9
ATOM      9  C   LIG d   1      -6.245  95.717 120.639  0.00  0.00     0.028 C 
ATOM     10  C   LIG d   1      -5.488  96.009 121.946  0.00  0.00     0.006 C 
ENDBRANCH   8   9
BRANCH   8  11
ATOM     11  C   LIG d   1      -8.008  94.731 122.014  0.00  0.00     0.028 C 
ATOM     12  C   LIG d   1      -8.080  93.499 122.929  0.00  0.00     0.006 C 
ENDBRANCH   8  11
ENDBRANCH   7   8
ENDBRANCH   1   7
BRANCH   6  13
ATOM     13  N   LIG d   1      -3.315  93.359 120.713  0.00  0.00    -0.311 N 
ATOM     14  C   LIG d   1      -2.500  93.193 121.753  0.00  0.00     0.210 C 
ATOM     15  C   LIG d   1      -1.674  94.427 122.130  0.00  0.00     0.109 C 
ATOM     16  O   LIG d   1      -2.359  92.132 122.380  0.00  0.00    -0.276 OA
ATOM     17  H   LIG d   1      -3.342  94.243 120.244  0.00  0.00     0.149 HD
ENDBRANCH   6  13
BRANCH   5  18
ATOM     18  N   LIG d   1      -2.373  90.730 119.473  0.00  0.00     0.381 N 
ATOM     19  H   LIG d   1      -2.458  89.773 119.194  0.00  0.00    -0.090 HD
ATOM     20  H   LIG d   1      -2.306  90.761 120.475  0.00  0.00    -0.090 HD
ATOM     21  H   LIG d   1      -1.557  91.131 119.066  0.00  0.00    -0.090 HD
ENDBRANCH   5  18
BRANCH   3  22
ATOM     22  C   LIG d   1      -6.579  90.466 117.198  0.00  0.00     0.382 C 
ATOM     23  O   LIG d   1      -7.727  90.903 116.942  0.00  0.00    -0.241 OA
ATOM     24  O   LIG d   1      -6.143  89.484 116.569  0.00  0.00    -0.241 OA
ENDBRANCH   3  22
TORSDOF 7
ENDMDL
MODEL 8
REMARK VINA RESULT:      -4.3      2.172      2.790
REMARK  7 active torsions:
REMARK  status: ('A' for Active; 'I' for Inactive)
REMARK    1  A    between atoms: C_2  and  C_3 
REMARK    2  A    between atoms: C_3  and  O_6 
REMARK    3  A    between atoms: C_3  and  C_4 
REMARK    4  A    between atoms: C_7  and  O_6 
REMARK    5  A    between atoms: C_9  and  C_10 
REMARK    6  A    between atoms: N_15  and  C_14 
REMARK    7  A    between atoms: N_20  and  C_19 
REMARK       I    between atoms: C_22  and  N_20 
ROOT
ATOM      1  C   LIG d   1      -2.339  91.648 118.113  0.00  0.00     0.161 C 
ATOM      2  C   LIG d   1      -3.564  91.178 117.609  0.00  0.00     0.016 C 
ATOM      3  C   LIG d   1      -3.748  89.870 117.106  0.00  0.00     0.038 C 
ATOM      4  C   LIG d   1      -2.752  88.888 117.212  0.00  0.00     0.028 C 
ATOM      5  C   LIG d   1      -1.339  89.460 117.253  0.00  0.00    -0.047 C 
ATOM      6  C   LIG d   1      -1.272  90.557 118.340  0.00  0.00     0.091 C 
ENDROOT
BRANCH   1   7
ATOM      7  O   LIG d   1      -2.563  92.390 119.328  0.00  0.00    -0.368 OA
BRANCH   7   8
ATOM      8  C   LIG d   1      -3.696  91.974 120.129  0.00  0.00     0.119 C 
BRANCH   8   9
ATOM      9  C   LIG d   1      -4.449  93.246 120.563  0.00  0.00     0.028 C 
ATOM     10  C   LIG d   1      -5.853  93.338 119.942  0.00  0.00     0.006 C 
ENDBRANCH   8   9
BRANCH   8  11
ATOM     11  C   LIG d   1      -3.243  91.307 121.432  0.00  0.00     0.028 C 
ATOM     12  C   LIG d   1      -3.165  89.776 121.322  0.00  0.00     0.006 C 
ENDBRANCH   8  11
ENDBRANCH   7   8
ENDBRANCH   1   7
BRANCH   6  13
ATOM     13  N   LIG d   1       0.053  91.227 118.388  0.00  0.00    -0.311 N 
ATOM     14  C   LIG d   1       0.764  91.367 119.506  0.00  0.00     0.210 C 
ATOM     15  C   LIG d   1       2.095  92.107 119.338  0.00  0.00     0.109 C 
ATOM     16  O   LIG d   1       0.433  90.920 120.615  0.00  0.00    -0.276 OA
ATOM     17  H   LIG d   1       0.412  91.592 117.527  0.00  0.00     0.149 HD
ENDBRANCH   6  13
BRANCH   5  18
ATOM     18  N   LIG d   1      -0.412  88.340 117.503  0.00  0.00     0.381 N 
ATOM     19  H   LIG d   1       0.124  88.153 116.679  0.00  0.00    -0.090 HD
ATOM     20  H   LIG d   1      -0.946  87.519 117.725  0.00  0.00    -0.090 HD
ATOM     21  H   LIG d   1       0.196  88.564 118.260  0.00  0.00    -0.090 HD
ENDBRANCH   5  18
BRANCH   3  22
ATOM     22  C   LIG d   1      -4.926  89.545 116.451  0.00  0.00     0.382 C 
ATOM     23  O   LIG d   1      -6.027  89.932 116.913  0.00  0.00    -0.241 OA
ATOM     24  O   LIG d   1      -4.906  88.832 115.430  0.00  0.00    -0.241 OA
ENDBRANCH   3  22
TORSDOF 7
ENDMDL
MODEL 9
REMARK VINA RESULT:      -4.2      2.231      3.339
REMARK  7 active torsions:
REMARK  status: ('A' for Active; 'I' for Inactive)
REMARK    1  A    between atoms: C_2  and  C_3 
REMARK    2  A    between atoms: C_3  and  O_6 
REMARK    3  A    between atoms: C_3  and  C_4 
REMARK    4  A    between atoms: C_7  and  O_6 
REMARK    5  A    between atoms: C_9  and  C_10 
REMARK    6  A    between atoms: N_15  and  C_14 
REMARK    7  A    between atoms: N_20  and  C_19 
REMARK       I    between atoms: C_22  and  N_20 
ROOT
ATOM      1  C   LIG d   1      -2.062  91.259 118.199  0.00  0.00     0.161 C 
ATOM      2  C   LIG d   1      -3.372  91.228 117.692  0.00  0.00     0.016 C 
ATOM      3  C   LIG d   1      -3.903  90.132 116.975  0.00  0.00     0.038 C 
ATOM      4  C   LIG d   1      -3.205  88.922 116.845  0.00  0.00     0.028 C 
ATOM      5  C   LIG d   1      -1.690  89.088 116.904  0.00  0.00    -0.047 C 
ATOM      6  C   LIG d   1      -1.323  89.905 118.163  0.00  0.00     0.091 C 
ENDROOT
BRANCH   1   7
ATOM      7  O   LIG d   1      -2.068  91.791 119.538  0.00  0.00    -0.368 OA
BRANCH   7   8
ATOM      8  C   LIG d   1      -1.811  93.212 119.660  0.00  0.00     0.119 C 
BRANCH   8   9
ATOM      9  C   LIG d   1      -0.370  93.379 120.181  0.00  0.00     0.028 C 
ATOM     10  C   LIG d   1       0.620  93.745 119.063  0.00  0.00     0.006 C 
ENDBRANCH   8   9
BRANCH   8  11
ATOM     11  C   LIG d   1      -2.705  93.850 120.728  0.00  0.00     0.028 C 
ATOM     12  C   LIG d   1      -3.296  92.820 121.703  0.00  0.00     0.006 C 
ENDBRANCH   8  11
ENDBRANCH   7   8
ENDBRANCH   1   7
BRANCH   6  13
ATOM     13  N   LIG d   1       0.134  90.185 118.252  0.00  0.00    -0.311 N 
ATOM     14  C   LIG d   1       0.866  89.925 119.335  0.00  0.00     0.210 C 
ATOM     15  C   LIG d   1       2.344  90.310 119.223  0.00  0.00     0.109 C 
ATOM     16  O   LIG d   1       0.437  89.384 120.365  0.00  0.00    -0.276 OA
ATOM     17  H   LIG d   1       0.570  90.595 117.450  0.00  0.00     0.149 HD
ENDBRANCH   6  13
BRANCH   5  18
ATOM     18  N   LIG d   1      -1.094  87.738 116.895  0.00  0.00     0.381 N 
ATOM     19  H   LIG d   1      -1.761  87.075 116.553  0.00  0.00    -0.090 HD
ATOM     20  H   LIG d   1      -0.850  87.485 117.836  0.00  0.00    -0.090 HD
ATOM     21  H   LIG d   1      -0.280  87.729 116.320  0.00  0.00    -0.090 HD
ENDBRANCH   5  18
BRANCH   3  22
ATOM     22  C   LIG d   1      -5.132  90.254 116.344  0.00  0.00     0.382 C 
ATOM     23  O   LIG d   1      -5.286  91.101 115.431  0.00  0.00    -0.241 OA
ATOM     24  O   LIG d   1      -6.100  89.560 116.706  0.00  0.00    -0.241 OA
ENDBRANCH   3  22
TORSDOF 7
ENDMDL
