MODEL 1
REMARK VINA RESULT:      -5.0      0.000      0.000
REMARK  7 active torsions:
REMARK  status: ('A' for Active; 'I' for Inactive)
REMARK    1  A    between atoms: C_2  and  C_3 
REMARK    2  A    between atoms: C_3  and  O_6 
REMARK    3  A    between atoms: C_3  and  C_4 
REMARK    4  A    between atoms: C_7  and  O_6 
REMARK    5  A    between atoms: C_9  and  C_10 
REMARK    6  A    between atoms: N_15  and  C_14 
REMARK    7  A    between atoms: N_20  and  C_19 
REMARK       I    between atoms: C_22  and  N_20 
ROOT
ATOM      1  C   LIG d   1      -4.662  91.936 117.523  0.00  0.00     0.161 C 
ATOM      2  C   LIG d   1      -3.781  90.888 117.209  0.00  0.00     0.016 C 
ATOM      3  C   LIG d   1      -4.184  89.703 116.552  0.00  0.00     0.038 C 
ATOM      4  C   LIG d   1      -5.475  89.549 116.026  0.00  0.00     0.028 C 
ATOM      5  C   LIG d   1      -6.531  90.368 116.762  0.00  0.00    -0.047 C 
ATOM      6  C   LIG d   1      -6.051  91.834 116.858  0.00  0.00     0.091 C 
ENDROOT
BRANCH   1   7
ATOM      7  O   LIG d   1      -4.048  93.201 117.209  0.00  0.00    -0.368 OA
BRANCH   7   8
ATOM      8  C   LIG d   1      -3.401  93.886 118.309  0.00  0.00     0.119 C 
BRANCH   8   9
ATOM      9  C   LIG d   1      -4.182  95.189 118.567  0.00  0.00     0.028 C 
ATOM     10  C   LIG d   1      -4.995  95.137 119.872  0.00  0.00     0.006 C 
ENDBRANCH   8   9
BRANCH   8  11
ATOM     11  C   LIG d   1      -1.984  94.331 117.933  0.00  0.00     0.028 C 
ATOM     12  C   LIG d   1      -0.933  93.236 118.172  0.00  0.00     0.006 C 
ENDBRANCH   8  11
ENDBRANCH   7   8
ENDBRANCH   1   7
BRANCH   6  13
ATOM     13  N   LIG d   1      -6.986  92.687 117.638  0.00  0.00    -0.311 N 
ATOM     14  C   LIG d   1      -7.402  93.884 117.227  0.00  0.00     0.210 C 
ATOM     15  C   LIG d   1      -8.349  94.605 118.192  0.00  0.00     0.109 C 
ATOM     16  O   LIG d   1      -7.102  94.403 116.142  0.00  0.00    -0.276 OA
ATOM     17  H   LIG d   1      -7.304  92.329 118.517  0.00  0.00     0.149 HD
ENDBRANCH   6  13
BRANCH   5  18
ATOM     18  N   LIG d   1      -7.801  90.222 116.026  0.00  0.00     0.381 N 
ATOM     19  H   LIG d   1      -7.725  89.477 115.363  0.00  0.00    -0.090 HD
ATOM     20  H   LIG d   1      -7.986  91.073 115.525  0.00  0.00    -0.090 HD
ATOM     21  H   LIG d   1      -8.544  90.035 116.663  0.00  0.00    -0.090 HD
ENDBRANCH   5  18
BRANCH   3  22
ATOM     22  C   LIG d   1      -3.301  88.638 116.451  0.00  0.00     0.382 C 
ATOM     23  O   LIG d   1      -3.584  87.656 115.724  0.00  0.00    -0.241 OA
ATOM     24  O   LIG d   1      -2.246  88.628 117.113  0.00  0.00    -0.241 OA
ENDBRANCH   3  22
TORSDOF 7
ENDMDL
MODEL 2
REMARK VINA RESULT:      -5.0      2.568      4.428
REMARK  7 active torsions:
REMARK  status: ('A' for Active; 'I' for Inactive)
REMARK    1  A    between atoms: C_2  and  C_3 
REMARK    2  A    between atoms: C_3  and  O_6 
REMARK    3  A    between atoms: C_3  and  C_4 
REMARK    4  A    between atoms: C_7  and  O_6 
REMARK    5  A    between atoms: C_9  and  C_10 
REMARK    6  A    between atoms: N_15  and  C_14 
REMARK    7  A    between atoms: N_20  and  C_19 
REMARK       I    between atoms: C_22  and  N_20 
ROOT
ATOM      1  C   LIG d   1      -5.970  93.863 117.014  0.00  0.00     0.161 C 
ATOM      2  C   LIG d   1      -6.548  92.631 116.666  0.00  0.00     0.016 C 
ATOM      3  C   LIG d   1      -6.026  91.383 117.076  0.00  0.00     0.038 C 
ATOM      4  C   LIG d   1      -4.970  91.287 117.994  0.00  0.00     0.028 C 
ATOM      5  C   LIG d   1      -4.038  92.494 117.973  0.00  0.00    -0.047 C 
ATOM      6  C   LIG d   1      -4.882  93.782 118.105  0.00  0.00     0.091 C 
ENDROOT
BRANCH   1   7
ATOM      7  O   LIG d   1      -6.999  94.795 117.401  0.00  0.00    -0.368 OA
BRANCH   7   8
ATOM      8  C   LIG d   1      -7.228  94.936 118.825  0.00  0.00     0.119 C 
BRANCH   8   9
ATOM      9  C   LIG d   1      -8.652  94.428 119.118  0.00  0.00     0.028 C 
ATOM     10  C   LIG d   1      -9.239  95.035 120.404  0.00  0.00     0.006 C 
ENDBRANCH   8   9
BRANCH   8  11
ATOM     11  C   LIG d   1      -7.228  96.409 119.245  0.00  0.00     0.028 C 
ATOM     12  C   LIG d   1      -6.838  97.356 118.099  0.00  0.00     0.006 C 
ENDBRANCH   8  11
ENDBRANCH   7   8
ENDBRANCH   1   7
BRANCH   6  13
ATOM     13  N   LIG d   1      -4.056  95.013 118.010  0.00  0.00    -0.311 N 
ATOM     14  C   LIG d   1      -3.593  95.669 119.072  0.00  0.00     0.210 C 
ATOM     15  C   LIG d   1      -2.778  96.927 118.751  0.00  0.00     0.109 C 
ATOM     16  O   LIG d   1      -3.752  95.312 120.249  0.00  0.00    -0.276 OA
ATOM     17  H   LIG d   1      -3.852  95.356 117.091  0.00  0.00     0.149 HD
ENDBRANCH   6  13
BRANCH   5  18
ATOM     18  N   LIG d   1      -3.066  92.324 119.070  0.00  0.00     0.381 N 
ATOM     19  H   LIG d   1      -2.730  93.219 119.365  0.00  0.00    -0.090 HD
ATOM     20  H   LIG d   1      -2.284  91.790 118.732  0.00  0.00    -0.090 HD
ATOM     21  H   LIG d   1      -3.494  91.853 119.836  0.00  0.00    -0.090 HD
ENDBRANCH   5  18
BRANCH   3  22
ATOM     22  C   LIG d   1      -6.538  90.213 116.535  0.00  0.00     0.382 C 
ATOM     23  O   LIG d   1      -5.795  89.213 116.389  0.00  0.00    -0.241 OA
ATOM     24  O   LIG d   1      -7.721  90.160 116.150  0.00  0.00    -0.241 OA
ENDBRANCH   3  22
TORSDOF 7
ENDMDL
MODEL 3
REMARK VINA RESULT:      -5.0      2.528      6.017
REMARK  7 active torsions:
REMARK  status: ('A' for Active; 'I' for Inactive)
REMARK    1  A    between atoms: C_2  and  C_3 
REMARK    2  A    between atoms: C_3  and  O_6 
REMARK    3  A    between atoms: C_3  and  C_4 
REMARK    4  A    between atoms: C_7  and  O_6 
REMARK    5  A    between atoms: C_9  and  C_10 
REMARK    6  A    between atoms: N_15  and  C_14 
REMARK    7  A    between atoms: N_20  and  C_19 
REMARK       I    between atoms: C_22  and  N_20 
ROOT
ATOM      1  C   LIG d   1      -5.557  92.943 117.246  0.00  0.00     0.161 C 
ATOM      2  C   LIG d   1      -6.843  93.275 117.703  0.00  0.00     0.016 C 
ATOM      3  C   LIG d   1      -7.132  94.459 118.420  0.00  0.00     0.038 C 
ATOM      4  C   LIG d   1      -6.176  95.470 118.598  0.00  0.00     0.028 C 
ATOM      5  C   LIG d   1      -4.741  94.954 118.594  0.00  0.00    -0.047 C 
ATOM      6  C   LIG d   1      -4.524  94.085 117.334  0.00  0.00     0.091 C 
ENDROOT
BRANCH   1   7
ATOM      7  O   LIG d   1      -5.633  92.439 115.897  0.00  0.00    -0.368 OA
BRANCH   7   8
ATOM      8  C   LIG d   1      -5.503  91.004 115.745  0.00  0.00     0.119 C 
BRANCH   8   9
ATOM      9  C   LIG d   1      -6.903  90.443 115.431  0.00  0.00     0.028 C 
ATOM     10  C   LIG d   1      -7.459  89.577 116.574  0.00  0.00     0.006 C 
ENDBRANCH   8   9
BRANCH   8  11
ATOM     11  C   LIG d   1      -5.085  90.339 117.060  0.00  0.00     0.028 C 
ATOM     12  C   LIG d   1      -3.743  89.598 116.953  0.00  0.00     0.006 C 
ENDBRANCH   8  11
ENDBRANCH   7   8
ENDBRANCH   1   7
BRANCH   6  13
ATOM     13  N   LIG d   1      -3.171  93.472 117.294  0.00  0.00    -0.311 N 
ATOM     14  C   LIG d   1      -2.657  92.765 118.300  0.00  0.00     0.210 C 
ATOM     15  C   LIG d   1      -1.238  92.238 118.061  0.00  0.00     0.109 C 
ATOM     16  O   LIG d   1      -3.253  92.497 119.354  0.00  0.00    -0.276 OA
ATOM     17  H   LIG d   1      -2.630  93.613 116.464  0.00  0.00     0.149 HD
ENDBRANCH   6  13
BRANCH   5  18
ATOM     18  N   LIG d   1      -3.846  96.125 118.650  0.00  0.00     0.381 N 
ATOM     19  H   LIG d   1      -4.260  96.841 119.212  0.00  0.00    -0.090 HD
ATOM     20  H   LIG d   1      -3.723  96.485 117.720  0.00  0.00    -0.090 HD
ATOM     21  H   LIG d   1      -2.964  95.862 119.031  0.00  0.00    -0.090 HD
ENDBRANCH   5  18
BRANCH   3  22
ATOM     22  C   LIG d   1      -8.380  94.623 119.002  0.00  0.00     0.382 C 
ATOM     23  O   LIG d   1      -8.616  95.635 119.705  0.00  0.00    -0.241 OA
ATOM     24  O   LIG d   1      -9.258  93.750 118.869  0.00  0.00    -0.241 OA
ENDBRANCH   3  22
TORSDOF 7
ENDMDL
MODEL 4
REMARK VINA RESULT:      -5.0      1.956      2.489
REMARK  7 active torsions:
REMARK  status: ('A' for Active; 'I' for Inactive)
REMARK    1  A    between atoms: C_2  and  C_3 
REMARK    2  A    between atoms: C_3  and  O_6 
REMARK    3  A    between atoms: C_3  and  C_4 
REMARK    4  A    between atoms: C_7  and  O_6 
REMARK    5  A    between atoms: C_9  and  C_10 
REMARK    6  A    between atoms: N_15  and  C_14 
REMARK    7  A    between atoms: N_20  and  C_19 
REMARK       I    between atoms: C_22  and  N_20 
ROOT
ATOM      1  C   LIG d   1      -5.306  93.219 117.386  0.00  0.00     0.161 C 
ATOM      2  C   LIG d   1      -5.303  91.846 117.093  0.00  0.00     0.016 C 
ATOM      3  C   LIG d   1      -6.296  91.215 116.309  0.00  0.00     0.038 C 
ATOM      4  C   LIG d   1      -7.284  91.947 115.634  0.00  0.00     0.028 C 
ATOM      5  C   LIG d   1      -7.623  93.272 116.309  0.00  0.00    -0.047 C 
ATOM      6  C   LIG d   1      -6.314  94.053 116.567  0.00  0.00     0.091 C 
ENDROOT
BRANCH   1   7
ATOM      7  O   LIG d   1      -3.976  93.754 117.237  0.00  0.00    -0.368 OA
BRANCH   7   8
ATOM      8  C   LIG d   1      -3.125  93.682 118.408  0.00  0.00     0.119 C 
BRANCH   8   9
ATOM      9  C   LIG d   1      -3.584  94.785 119.382  0.00  0.00     0.028 C 
ATOM     10  C   LIG d   1      -3.362  96.197 118.815  0.00  0.00     0.006 C 
ENDBRANCH   8   9
BRANCH   8  11
ATOM     11  C   LIG d   1      -1.673  94.024 118.063  0.00  0.00     0.028 C 
ATOM     12  C   LIG d   1      -0.740  92.804 118.134  0.00  0.00     0.006 C 
ENDBRANCH   8  11
ENDBRANCH   7   8
ENDBRANCH   1   7
BRANCH   6  13
ATOM     13  N   LIG d   1      -6.547  95.324 117.301  0.00  0.00    -0.311 N 
ATOM     14  C   LIG d   1      -7.127  95.383 118.499  0.00  0.00     0.210 C 
ATOM     15  C   LIG d   1      -7.289  96.796 119.069  0.00  0.00     0.109 C 
ATOM     16  O   LIG d   1      -7.492  94.398 119.157  0.00  0.00    -0.276 OA
ATOM     17  H   LIG d   1      -6.253  96.170 116.853  0.00  0.00     0.149 HD
ENDBRANCH   6  13
BRANCH   5  18
ATOM     18  N   LIG d   1      -8.562  93.993 115.430  0.00  0.00     0.381 N 
ATOM     19  H   LIG d   1      -9.457  94.060 115.873  0.00  0.00    -0.090 HD
ATOM     20  H   LIG d   1      -8.671  93.475 114.576  0.00  0.00    -0.090 HD
ATOM     21  H   LIG d   1      -8.213  94.905 115.232  0.00  0.00    -0.090 HD
ENDBRANCH   5  18
BRANCH   3  22
ATOM     22  C   LIG d   1      -6.330  89.831 116.226  0.00  0.00     0.382 C 
ATOM     23  O   LIG d   1      -7.432  89.233 116.183  0.00  0.00    -0.241 OA
ATOM     24  O   LIG d   1      -5.274  89.171 116.239  0.00  0.00    -0.241 OA
ENDBRANCH   3  22
TORSDOF 7
ENDMDL
MODEL 5
REMARK VINA RESULT:      -4.9      2.421      4.283
REMARK  7 active torsions:
REMARK  status: ('A' for Active; 'I' for Inactive)
REMARK    1  A    between atoms: C_2  and  C_3 
REMARK    2  A    between atoms: C_3  and  O_6 
REMARK    3  A    between atoms: C_3  and  C_4 
REMARK    4  A    between atoms: C_7  and  O_6 
REMARK    5  A    between atoms: C_9  and  C_10 
REMARK    6  A    between atoms: N_15  and  C_14 
REMARK    7  A    between atoms: N_20  and  C_19 
REMARK       I    between atoms: C_22  and  N_20 
ROOT
ATOM      1  C   LIG d   1      -4.491  93.211 116.983  0.00  0.00     0.161 C 
ATOM      2  C   LIG d   1      -5.464  92.250 116.660  0.00  0.00     0.016 C 
ATOM      3  C   LIG d   1      -5.353  90.883 117.006  0.00  0.00     0.038 C 
ATOM      4  C   LIG d   1      -4.325  90.410 117.836  0.00  0.00     0.028 C 
ATOM      5  C   LIG d   1      -3.053  91.248 117.763  0.00  0.00    -0.047 C 
ATOM      6  C   LIG d   1      -3.418  92.734 117.984  0.00  0.00     0.091 C 
ENDROOT
BRANCH   1   7
ATOM      7  O   LIG d   1      -5.130  94.409 117.467  0.00  0.00    -0.368 OA
BRANCH   7   8
ATOM      8  C   LIG d   1      -5.899  94.273 118.687  0.00  0.00     0.119 C 
BRANCH   8   9
ATOM      9  C   LIG d   1      -7.309  94.829 118.409  0.00  0.00     0.028 C 
ATOM     10  C   LIG d   1      -7.435  95.434 117.000  0.00  0.00     0.006 C 
ENDBRANCH   8   9
BRANCH   8  11
ATOM     11  C   LIG d   1      -5.330  95.151 119.805  0.00  0.00     0.028 C 
ATOM     12  C   LIG d   1      -4.479  96.315 119.274  0.00  0.00     0.006 C 
ENDBRANCH   8  11
ENDBRANCH   7   8
ENDBRANCH   1   7
BRANCH   6  13
ATOM     13  N   LIG d   1      -2.242  93.632 117.845  0.00  0.00    -0.311 N 
ATOM     14  C   LIG d   1      -1.537  94.082 118.881  0.00  0.00     0.210 C 
ATOM     15  C   LIG d   1      -0.376  95.013 118.518  0.00  0.00     0.109 C 
ATOM     16  O   LIG d   1      -1.742  93.772 120.064  0.00  0.00    -0.276 OA
ATOM     17  H   LIG d   1      -1.987  93.909 116.917  0.00  0.00     0.149 HD
ENDBRANCH   6  13
BRANCH   5  18
ATOM     18  N   LIG d   1      -2.117  90.725 118.776  0.00  0.00     0.381 N 
ATOM     19  H   LIG d   1      -1.492  91.451 119.066  0.00  0.00    -0.090 HD
ATOM     20  H   LIG d   1      -1.574  89.986 118.366  0.00  0.00    -0.090 HD
ATOM     21  H   LIG d   1      -2.623  90.379 119.562  0.00  0.00    -0.090 HD
ENDBRANCH   5  18
BRANCH   3  22
ATOM     22  C   LIG d   1      -6.255  89.968 116.487  0.00  0.00     0.382 C 
ATOM     23  O   LIG d   1      -7.445  89.965 116.885  0.00  0.00    -0.241 OA
ATOM     24  O   LIG d   1      -5.884  89.115 115.658  0.00  0.00    -0.241 OA
ENDBRANCH   3  22
TORSDOF 7
ENDMDL
MODEL 6
REMARK VINA RESULT:      -4.9      2.020      4.943
REMARK  7 active torsions:
REMARK  status: ('A' for Active; 'I' for Inactive)
REMARK    1  A    between atoms: C_2  and  C_3 
REMARK    2  A    between atoms: C_3  and  O_6 
REMARK    3  A    between atoms: C_3  and  C_4 
REMARK    4  A    between atoms: C_7  and  O_6 
REMARK    5  A    between atoms: C_9  and  C_10 
REMARK    6  A    between atoms: N_15  and  C_14 
REMARK    7  A    between atoms: N_20  and  C_19 
REMARK       I    between atoms: C_22  and  N_20 
ROOT
ATOM      1  C   LIG d   1      -4.157  93.112 117.328  0.00  0.00     0.161 C 
ATOM      2  C   LIG d   1      -5.381  93.771 117.125  0.00  0.00     0.016 C 
ATOM      3  C   LIG d   1      -6.489  93.174 116.481  0.00  0.00     0.038 C 
ATOM      4  C   LIG d   1      -6.498  91.816 116.128  0.00  0.00     0.028 C 
ATOM      5  C   LIG d   1      -5.108  91.251 115.857  0.00  0.00    -0.047 C 
ATOM      6  C   LIG d   1      -4.186  91.594 117.050  0.00  0.00     0.091 C 
ENDROOT
BRANCH   1   7
ATOM      7  O   LIG d   1      -3.681  93.367 118.665  0.00  0.00    -0.368 OA
BRANCH   7   8
ATOM      8  C   LIG d   1      -2.638  94.364 118.790  0.00  0.00     0.119 C 
BRANCH   8   9
ATOM      9  C   LIG d   1      -1.470  93.719 119.562  0.00  0.00     0.028 C 
ATOM     10  C   LIG d   1      -0.196  93.603 118.709  0.00  0.00     0.006 C 
ENDBRANCH   8   9
BRANCH   8  11
ATOM     11  C   LIG d   1      -3.094  95.543 119.655  0.00  0.00     0.028 C 
ATOM     12  C   LIG d   1      -3.438  96.791 118.828  0.00  0.00     0.006 C 
ENDBRANCH   8  11
ENDBRANCH   7   8
ENDBRANCH   1   7
BRANCH   6  13
ATOM     13  N   LIG d   1      -2.785  91.151 116.829  0.00  0.00    -0.311 N 
ATOM     14  C   LIG d   1      -2.071  90.494 117.741  0.00  0.00     0.210 C 
ATOM     15  C   LIG d   1      -0.640  90.148 117.317  0.00  0.00     0.109 C 
ATOM     16  O   LIG d   1      -2.498  90.136 118.850  0.00  0.00    -0.276 OA
ATOM     17  H   LIG d   1      -2.370  91.372 115.944  0.00  0.00     0.149 HD
ENDBRANCH   6  13
BRANCH   5  18
ATOM     18  N   LIG d   1      -5.252  89.800 115.637  0.00  0.00     0.381 N 
ATOM     19  H   LIG d   1      -4.362  89.401 115.412  0.00  0.00    -0.090 HD
ATOM     20  H   LIG d   1      -5.870  89.649 114.859  0.00  0.00    -0.090 HD
ATOM     21  H   LIG d   1      -5.621  89.366 116.454  0.00  0.00    -0.090 HD
ENDBRANCH   5  18
BRANCH   3  22
ATOM     22  C   LIG d   1      -7.589  93.949 116.147  0.00  0.00     0.382 C 
ATOM     23  O   LIG d   1      -7.615  95.166 116.451  0.00  0.00    -0.241 OA
ATOM     24  O   LIG d   1      -8.576  93.436 115.586  0.00  0.00    -0.241 OA
ENDBRANCH   3  22
TORSDOF 7
ENDMDL
MODEL 7
REMARK VINA RESULT:      -4.8      1.961      4.846
REMARK  7 active torsions:
REMARK  status: ('A' for Active; 'I' for Inactive)
REMARK    1  A    between atoms: C_2  and  C_3 
REMARK    2  A    between atoms: C_3  and  O_6 
REMARK    3  A    between atoms: C_3  and  C_4 
REMARK    4  A    between atoms: C_7  and  O_6 
REMARK    5  A    between atoms: C_9  and  C_10 
REMARK    6  A    between atoms: N_15  and  C_14 
REMARK    7  A    between atoms: N_20  and  C_19 
REMARK       I    between atoms: C_22  and  N_20 
ROOT
ATOM      1  C   LIG d   1      -4.351  93.191 117.432  0.00  0.00     0.161 C 
ATOM      2  C   LIG d   1      -5.487  93.978 117.181  0.00  0.00     0.016 C 
ATOM      3  C   LIG d   1      -6.657  93.481 116.563  0.00  0.00     0.038 C 
ATOM      4  C   LIG d   1      -6.829  92.116 116.289  0.00  0.00     0.028 C 
ATOM      5  C   LIG d   1      -5.515  91.374 116.064  0.00  0.00    -0.047 C 
ATOM      6  C   LIG d   1      -4.561  91.674 117.242  0.00  0.00     0.091 C 
ENDROOT
BRANCH   1   7
ATOM      7  O   LIG d   1      -3.849  93.465 118.755  0.00  0.00    -0.368 OA
BRANCH   7   8
ATOM      8  C   LIG d   1      -4.617  92.915 119.855  0.00  0.00     0.119 C 
BRANCH   8   9
ATOM      9  C   LIG d   1      -5.021  94.088 120.769  0.00  0.00     0.028 C 
ATOM     10  C   LIG d   1      -6.500  94.475 120.607  0.00  0.00     0.006 C 
ENDBRANCH   8   9
BRANCH   8  11
ATOM     11  C   LIG d   1      -3.758  91.996 120.729  0.00  0.00     0.028 C 
ATOM     12  C   LIG d   1      -2.255  92.133 120.441  0.00  0.00     0.006 C 
ENDBRANCH   8  11
ENDBRANCH   7   8
ENDBRANCH   1   7
BRANCH   6  13
ATOM     13  N   LIG d   1      -3.222  91.054 117.058  0.00  0.00    -0.311 N 
ATOM     14  C   LIG d   1      -2.871  89.892 117.606  0.00  0.00     0.210 C 
ATOM     15  C   LIG d   1      -1.437  89.443 117.307  0.00  0.00     0.109 C 
ATOM     16  O   LIG d   1      -3.621  89.175 118.285  0.00  0.00    -0.276 OA
ATOM     17  H   LIG d   1      -2.561  91.554 116.496  0.00  0.00     0.149 HD
ENDBRANCH   6  13
BRANCH   5  18
ATOM     18  N   LIG d   1      -5.832  89.940 115.926  0.00  0.00     0.381 N 
ATOM     19  H   LIG d   1      -5.980  89.537 116.830  0.00  0.00    -0.090 HD
ATOM     20  H   LIG d   1      -5.051  89.474 115.498  0.00  0.00    -0.090 HD
ATOM     21  H   LIG d   1      -6.646  89.822 115.364  0.00  0.00    -0.090 HD
ENDBRANCH   5  18
BRANCH   3  22
ATOM     22  C   LIG d   1      -7.657  94.360 116.176  0.00  0.00     0.382 C 
ATOM     23  O   LIG d   1      -7.661  95.536 116.614  0.00  0.00    -0.241 OA
ATOM     24  O   LIG d   1      -8.579  93.980 115.430  0.00  0.00    -0.241 OA
ENDBRANCH   3  22
TORSDOF 7
ENDMDL
MODEL 8
REMARK VINA RESULT:      -4.7      2.364      4.659
REMARK  7 active torsions:
REMARK  status: ('A' for Active; 'I' for Inactive)
REMARK    1  A    between atoms: C_2  and  C_3 
REMARK    2  A    between atoms: C_3  and  O_6 
REMARK    3  A    between atoms: C_3  and  C_4 
REMARK    4  A    between atoms: C_7  and  O_6 
REMARK    5  A    between atoms: C_9  and  C_10 
REMARK    6  A    between atoms: N_15  and  C_14 
REMARK    7  A    between atoms: N_20  and  C_19 
REMARK       I    between atoms: C_22  and  N_20 
ROOT
ATOM      1  C   LIG d   1      -4.150  92.405 116.925  0.00  0.00     0.161 C 
ATOM      2  C   LIG d   1      -5.516  92.339 116.601  0.00  0.00     0.016 C 
ATOM      3  C   LIG d   1      -6.156  91.154 116.170  0.00  0.00     0.038 C 
ATOM      4  C   LIG d   1      -5.503  89.912 116.180  0.00  0.00     0.028 C 
ATOM      5  C   LIG d   1      -3.991  90.022 116.017  0.00  0.00    -0.047 C 
ATOM      6  C   LIG d   1      -3.447  91.037 117.048  0.00  0.00     0.091 C 
ENDROOT
BRANCH   1   7
ATOM      7  O   LIG d   1      -3.972  93.171 118.134  0.00  0.00    -0.368 OA
BRANCH   7   8
ATOM      8  C   LIG d   1      -4.438  94.542 118.094  0.00  0.00     0.119 C 
BRANCH   8   9
ATOM      9  C   LIG d   1      -3.233  95.450 118.407  0.00  0.00     0.028 C 
ATOM     10  C   LIG d   1      -1.905  94.674 118.434  0.00  0.00     0.006 C 
ENDBRANCH   8   9
BRANCH   8  11
ATOM     11  C   LIG d   1      -5.453  94.818 119.208  0.00  0.00     0.028 C 
ATOM     12  C   LIG d   1      -6.524  95.842 118.798  0.00  0.00     0.006 C 
ENDBRANCH   8  11
ENDBRANCH   7   8
ENDBRANCH   1   7
BRANCH   6  13
ATOM     13  N   LIG d   1      -1.986  91.268 116.902  0.00  0.00    -0.311 N 
ATOM     14  C   LIG d   1      -1.108  91.048 117.878  0.00  0.00     0.210 C 
ATOM     15  C   LIG d   1       0.347  91.370 117.523  0.00  0.00     0.109 C 
ATOM     16  O   LIG d   1      -1.391  90.588 118.995  0.00  0.00    -0.276 OA
ATOM     17  H   LIG d   1      -1.665  91.611 116.018  0.00  0.00     0.149 HD
ENDBRANCH   6  13
BRANCH   5  18
ATOM     18  N   LIG d   1      -3.425  88.670 116.183  0.00  0.00     0.381 N 
ATOM     19  H   LIG d   1      -2.856  88.640 117.005  0.00  0.00    -0.090 HD
ATOM     20  H   LIG d   1      -2.845  88.461 115.390  0.00  0.00    -0.090 HD
ATOM     21  H   LIG d   1      -4.159  88.000 116.253  0.00  0.00    -0.090 HD
ENDBRANCH   5  18
BRANCH   3  22
ATOM     22  C   LIG d   1      -7.454  91.212 115.686  0.00  0.00     0.382 C 
ATOM     23  O   LIG d   1      -8.075  90.152 115.430  0.00  0.00    -0.241 OA
ATOM     24  O   LIG d   1      -7.996  92.310 115.460  0.00  0.00    -0.241 OA
ENDBRANCH   3  22
TORSDOF 7
ENDMDL
MODEL 9
REMARK VINA RESULT:      -4.6      1.816      2.818
REMARK  7 active torsions:
REMARK  status: ('A' for Active; 'I' for Inactive)
REMARK    1  A    between atoms: C_2  and  C_3 
REMARK    2  A    between atoms: C_3  and  O_6 
REMARK    3  A    between atoms: C_3  and  C_4 
REMARK    4  A    between atoms: C_7  and  O_6 
REMARK    5  A    between atoms: C_9  and  C_10 
REMARK    6  A    between atoms: N_15  and  C_14 
REMARK    7  A    between atoms: N_20  and  C_19 
REMARK       I    between atoms: C_22  and  N_20 
ROOT
ATOM      1  C   LIG d   1      -5.380  92.867 118.784  0.00  0.00     0.161 C 
ATOM      2  C   LIG d   1      -5.102  91.623 118.193  0.00  0.00     0.016 C 
ATOM      3  C   LIG d   1      -5.758  91.149 117.034  0.00  0.00     0.038 C 
ATOM      4  C   LIG d   1      -6.635  91.957 116.295  0.00  0.00     0.028 C 
ATOM      5  C   LIG d   1      -7.325  93.028 117.135  0.00  0.00    -0.047 C 
ATOM      6  C   LIG d   1      -6.254  93.809 117.929  0.00  0.00     0.091 C 
ENDROOT
BRANCH   1   7
ATOM      7  O   LIG d   1      -4.148  93.521 119.149  0.00  0.00    -0.368 OA
BRANCH   7   8
ATOM      8  C   LIG d   1      -3.075  93.446 118.179  0.00  0.00     0.119 C 
BRANCH   8   9
ATOM      9  C   LIG d   1      -1.853  92.828 118.886  0.00  0.00     0.028 C 
ATOM     10  C   LIG d   1      -0.993  91.977 117.937  0.00  0.00     0.006 C 
ENDBRANCH   8   9
BRANCH   8  11
ATOM     11  C   LIG d   1      -2.625  94.841 117.737  0.00  0.00     0.028 C 
ATOM     12  C   LIG d   1      -3.196  95.960 118.622  0.00  0.00     0.006 C 
ENDBRANCH   8  11
ENDBRANCH   7   8
ENDBRANCH   1   7
BRANCH   6  13
ATOM     13  N   LIG d   1      -6.850  94.820 118.841  0.00  0.00    -0.311 N 
ATOM     14  C   LIG d   1      -7.218  96.037 118.445  0.00  0.00     0.210 C 
ATOM     15  C   LIG d   1      -7.792  96.931 119.549  0.00  0.00     0.109 C 
ATOM     16  O   LIG d   1      -7.154  96.451 117.277  0.00  0.00    -0.276 OA
ATOM     17  H   LIG d   1      -6.967  94.557 119.800  0.00  0.00     0.149 HD
ENDBRANCH   6  13
BRANCH   5  18
ATOM     18  N   LIG d   1      -8.101  93.882 116.217  0.00  0.00     0.381 N 
ATOM     19  H   LIG d   1      -8.600  94.575 116.739  0.00  0.00    -0.090 HD
ATOM     20  H   LIG d   1      -8.770  93.312 115.730  0.00  0.00    -0.090 HD
ATOM     21  H   LIG d   1      -7.492  94.323 115.563  0.00  0.00    -0.090 HD
ENDBRANCH   5  18
BRANCH   3  22
ATOM     22  C   LIG d   1      -5.569  89.838 116.625  0.00  0.00     0.382 C 
ATOM     23  O   LIG d   1      -4.417  89.340 116.628  0.00  0.00    -0.241 OA
ATOM     24  O   LIG d   1      -6.529  89.160 116.211  0.00  0.00    -0.241 OA
ENDBRANCH   3  22
TORSDOF 7
ENDMDL
