MODEL 1
REMARK VINA RESULT:      -5.0      0.000      0.000
REMARK  7 active torsions:
REMARK  status: ('A' for Active; 'I' for Inactive)
REMARK    1  A    between atoms: C_2  and  C_3 
REMARK    2  A    between atoms: C_3  and  O_6 
REMARK    3  A    between atoms: C_3  and  C_4 
REMARK    4  A    between atoms: C_7  and  O_6 
REMARK    5  A    between atoms: C_9  and  C_10 
REMARK    6  A    between atoms: N_15  and  C_14 
REMARK    7  A    between atoms: N_20  and  C_19 
REMARK       I    between atoms: C_22  and  N_20 
ROOT
ATOM      1  C   LIG d   1      -4.247  92.111 119.027  0.00  0.00     0.161 C 
ATOM      2  C   LIG d   1      -5.481  92.779 119.096  0.00  0.00     0.016 C 
ATOM      3  C   LIG d   1      -6.500  92.632 118.128  0.00  0.00     0.038 C 
ATOM      4  C   LIG d   1      -6.413  91.685 117.097  0.00  0.00     0.028 C 
ATOM      5  C   LIG d   1      -4.978  91.353 116.699  0.00  0.00    -0.047 C 
ATOM      6  C   LIG d   1      -4.176  90.990 117.969  0.00  0.00     0.091 C 
ENDROOT
BRANCH   1   7
ATOM      7  O   LIG d   1      -3.895  91.597 120.327  0.00  0.00    -0.368 OA
BRANCH   7   8
ATOM      8  C   LIG d   1      -2.795  92.258 120.997  0.00  0.00     0.119 C 
BRANCH   8   9
ATOM      9  C   LIG d   1      -2.167  93.246 119.995  0.00  0.00     0.028 C 
ATOM     10  C   LIG d   1      -0.688  92.933 119.711  0.00  0.00     0.006 C 
ENDBRANCH   8   9
BRANCH   8  11
ATOM     11  C   LIG d   1      -1.678  91.269 121.344  0.00  0.00     0.028 C 
ATOM     12  C   LIG d   1      -2.205  89.853 121.631  0.00  0.00     0.006 C 
ENDBRANCH   8  11
ENDBRANCH   7   8
ENDBRANCH   1   7
BRANCH   6  13
ATOM     13  N   LIG d   1      -2.741  90.734 117.680  0.00  0.00    -0.311 N 
ATOM     14  C   LIG d   1      -2.142  89.569 117.920  0.00  0.00     0.210 C 
ATOM     15  C   LIG d   1      -0.652  89.524 117.566  0.00  0.00     0.109 C 
ATOM     16  O   LIG d   1      -2.709  88.559 118.362  0.00  0.00    -0.276 OA
ATOM     17  H   LIG d   1      -2.213  91.489 117.290  0.00  0.00     0.149 HD
ENDBRANCH   6  13
BRANCH   5  18
ATOM     18  N   LIG d   1      -5.031  90.256 115.714  0.00  0.00     0.381 N 
ATOM     19  H   LIG d   1      -5.890  90.300 115.204  0.00  0.00    -0.090 HD
ATOM     20  H   LIG d   1      -5.000  89.379 116.204  0.00  0.00    -0.090 HD
ATOM     21  H   LIG d   1      -4.260  90.323 115.088  0.00  0.00    -0.090 HD
ENDBRANCH   5  18
BRANCH   3  22
ATOM     22  C   LIG d   1      -7.607  93.467 118.163  0.00  0.00     0.382 C 
ATOM     23  O   LIG d   1      -8.332  93.504 119.186  0.00  0.00    -0.241 OA
ATOM     24  O   LIG d   1      -7.914  94.151 117.168  0.00  0.00    -0.241 OA
ENDBRANCH   3  22
TORSDOF 7
ENDMDL
MODEL 2
REMARK VINA RESULT:      -4.8      2.641      4.184
REMARK  7 active torsions:
REMARK  status: ('A' for Active; 'I' for Inactive)
REMARK    1  A    between atoms: C_2  and  C_3 
REMARK    2  A    between atoms: C_3  and  O_6 
REMARK    3  A    between atoms: C_3  and  C_4 
REMARK    4  A    between atoms: C_7  and  O_6 
REMARK    5  A    between atoms: C_9  and  C_10 
REMARK    6  A    between atoms: N_15  and  C_14 
REMARK    7  A    between atoms: N_20  and  C_19 
REMARK       I    between atoms: C_22  and  N_20 
ROOT
ATOM      1  C   LIG d   1      -4.403  91.819 118.269  0.00  0.00     0.161 C 
ATOM      2  C   LIG d   1      -4.896  90.954 117.278  0.00  0.00     0.016 C 
ATOM      3  C   LIG d   1      -6.125  91.156 116.609  0.00  0.00     0.038 C 
ATOM      4  C   LIG d   1      -6.878  92.327 116.780  0.00  0.00     0.028 C 
ATOM      5  C   LIG d   1      -6.673  92.986 118.140  0.00  0.00    -0.047 C 
ATOM      6  C   LIG d   1      -5.157  93.160 118.390  0.00  0.00     0.091 C 
ENDROOT
BRANCH   1   7
ATOM      7  O   LIG d   1      -2.997  92.052 118.059  0.00  0.00    -0.368 OA
BRANCH   7   8
ATOM      8  C   LIG d   1      -2.105  91.530 119.075  0.00  0.00     0.119 C 
BRANCH   8   9
ATOM      9  C   LIG d   1      -1.406  92.733 119.739  0.00  0.00     0.028 C 
ATOM     10  C   LIG d   1      -1.675  92.807 121.251  0.00  0.00     0.006 C 
ENDBRANCH   8   9
BRANCH   8  11
ATOM     11  C   LIG d   1      -0.979  90.698 118.455  0.00  0.00     0.028 C 
ATOM     12  C   LIG d   1      -1.489  89.416 117.779  0.00  0.00     0.006 C 
ENDBRANCH   8  11
ENDBRANCH   7   8
ENDBRANCH   1   7
BRANCH   6  13
ATOM     13  N   LIG d   1      -4.865  93.721 119.735  0.00  0.00    -0.311 N 
ATOM     14  C   LIG d   1      -4.763  95.026 119.978  0.00  0.00     0.210 C 
ATOM     15  C   LIG d   1      -4.436  95.390 121.430  0.00  0.00     0.109 C 
ATOM     16  O   LIG d   1      -4.944  95.919 119.137  0.00  0.00    -0.276 OA
ATOM     17  H   LIG d   1      -4.734  93.068 120.483  0.00  0.00     0.149 HD
ENDBRANCH   6  13
BRANCH   5  18
ATOM     18  N   LIG d   1      -7.407  94.266 118.131  0.00  0.00     0.381 N 
ATOM     19  H   LIG d   1      -7.834  94.405 117.237  0.00  0.00    -0.090 HD
ATOM     20  H   LIG d   1      -6.757  95.015 118.291  0.00  0.00    -0.090 HD
ATOM     21  H   LIG d   1      -8.104  94.263 118.843  0.00  0.00    -0.090 HD
ENDBRANCH   5  18
BRANCH   3  22
ATOM     22  C   LIG d   1      -6.632  90.161 115.787  0.00  0.00     0.382 C 
ATOM     23  O   LIG d   1      -7.836  90.193 115.435  0.00  0.00    -0.241 OA
ATOM     24  O   LIG d   1      -5.913  89.209 115.430  0.00  0.00    -0.241 OA
ENDBRANCH   3  22
TORSDOF 7
ENDMDL
MODEL 3
REMARK VINA RESULT:      -4.6      2.298      3.953
REMARK  7 active torsions:
REMARK  status: ('A' for Active; 'I' for Inactive)
REMARK    1  A    between atoms: C_2  and  C_3 
REMARK    2  A    between atoms: C_3  and  O_6 
REMARK    3  A    between atoms: C_3  and  C_4 
REMARK    4  A    between atoms: C_7  and  O_6 
REMARK    5  A    between atoms: C_9  and  C_10 
REMARK    6  A    between atoms: N_15  and  C_14 
REMARK    7  A    between atoms: N_20  and  C_19 
REMARK       I    between atoms: C_22  and  N_20 
ROOT
ATOM      1  C   LIG d   1      -3.259  90.536 118.196  0.00  0.00     0.161 C 
ATOM      2  C   LIG d   1      -4.228  90.263 117.216  0.00  0.00     0.016 C 
ATOM      3  C   LIG d   1      -5.315  91.123 116.937  0.00  0.00     0.038 C 
ATOM      4  C   LIG d   1      -5.424  92.394 117.519  0.00  0.00     0.028 C 
ATOM      5  C   LIG d   1      -4.748  92.496 118.882  0.00  0.00    -0.047 C 
ATOM      6  C   LIG d   1      -3.299  91.970 118.764  0.00  0.00     0.091 C 
ENDROOT
BRANCH   1   7
ATOM      7  O   LIG d   1      -1.946  90.237 117.682  0.00  0.00    -0.368 OA
BRANCH   7   8
ATOM      8  C   LIG d   1      -1.424  88.922 117.994  0.00  0.00     0.119 C 
BRANCH   8   9
ATOM      9  C   LIG d   1      -1.590  88.706 119.511  0.00  0.00     0.028 C 
ATOM     10  C   LIG d   1      -2.216  87.342 119.845  0.00  0.00     0.006 C 
ENDBRANCH   8   9
BRANCH   8  11
ATOM     11  C   LIG d   1       0.084  88.846 117.736  0.00  0.00     0.028 C 
ATOM     12  C   LIG d   1       0.900  89.707 118.713  0.00  0.00     0.006 C 
ENDBRANCH   8  11
ENDBRANCH   7   8
ENDBRANCH   1   7
BRANCH   6  13
ATOM     13  N   LIG d   1      -2.593  91.956 120.071  0.00  0.00    -0.311 N 
ATOM     14  C   LIG d   1      -1.366  92.445 120.247  0.00  0.00     0.210 C 
ATOM     15  C   LIG d   1      -0.815  92.312 121.671  0.00  0.00     0.109 C 
ATOM     16  O   LIG d   1      -0.695  93.004 119.367  0.00  0.00    -0.276 OA
ATOM     17  H   LIG d   1      -3.077  91.549 120.847  0.00  0.00     0.149 HD
ENDBRANCH   6  13
BRANCH   5  18
ATOM     18  N   LIG d   1      -4.818  93.906 119.310  0.00  0.00     0.381 N 
ATOM     19  H   LIG d   1      -5.769  94.217 119.298  0.00  0.00    -0.090 HD
ATOM     20  H   LIG d   1      -4.294  94.469 118.663  0.00  0.00    -0.090 HD
ATOM     21  H   LIG d   1      -4.441  94.004 120.227  0.00  0.00    -0.090 HD
ENDBRANCH   5  18
BRANCH   3  22
ATOM     22  C   LIG d   1      -6.331  90.695 116.095  0.00  0.00     0.382 C 
ATOM     23  O   LIG d   1      -6.448  89.475 115.824  0.00  0.00    -0.241 OA
ATOM     24  O   LIG d   1      -7.104  91.517 115.569  0.00  0.00    -0.241 OA
ENDBRANCH   3  22
TORSDOF 7
ENDMDL
MODEL 4
REMARK VINA RESULT:      -4.5      2.387      6.282
REMARK  7 active torsions:
REMARK  status: ('A' for Active; 'I' for Inactive)
REMARK    1  A    between atoms: C_2  and  C_3 
REMARK    2  A    between atoms: C_3  and  O_6 
REMARK    3  A    between atoms: C_3  and  C_4 
REMARK    4  A    between atoms: C_7  and  O_6 
REMARK    5  A    between atoms: C_9  and  C_10 
REMARK    6  A    between atoms: N_15  and  C_14 
REMARK    7  A    between atoms: N_20  and  C_19 
REMARK       I    between atoms: C_22  and  N_20 
ROOT
ATOM      1  C   LIG d   1      -3.228  90.645 118.033  0.00  0.00     0.161 C 
ATOM      2  C   LIG d   1      -2.414  89.530 117.771  0.00  0.00     0.016 C 
ATOM      3  C   LIG d   1      -1.342  89.136 118.605  0.00  0.00     0.038 C 
ATOM      4  C   LIG d   1      -1.106  89.747 119.846  0.00  0.00     0.028 C 
ATOM      5  C   LIG d   1      -1.585  91.193 119.911  0.00  0.00    -0.047 C 
ATOM      6  C   LIG d   1      -3.055  91.256 119.439  0.00  0.00     0.091 C 
ENDROOT
BRANCH   1   7
ATOM      7  O   LIG d   1      -4.610  90.306 117.800  0.00  0.00    -0.368 OA
BRANCH   7   8
ATOM      8  C   LIG d   1      -5.331  91.166 116.885  0.00  0.00     0.119 C 
BRANCH   8   9
ATOM      9  C   LIG d   1      -6.720  91.433 117.498  0.00  0.00     0.028 C 
ATOM     10  C   LIG d   1      -6.983  92.931 117.725  0.00  0.00     0.006 C 
ENDBRANCH   8   9
BRANCH   8  11
ATOM     11  C   LIG d   1      -5.605  90.459 115.554  0.00  0.00     0.028 C 
ATOM     12  C   LIG d   1      -7.053  89.960 115.430  0.00  0.00     0.006 C 
ENDBRANCH   8  11
ENDBRANCH   7   8
ENDBRANCH   1   7
BRANCH   6  13
ATOM     13  N   LIG d   1      -3.576  92.647 119.392  0.00  0.00    -0.311 N 
ATOM     14  C   LIG d   1      -4.254  93.211 120.390  0.00  0.00     0.210 C 
ATOM     15  C   LIG d   1      -4.717  94.647 120.127  0.00  0.00     0.109 C 
ATOM     16  O   LIG d   1      -4.487  92.669 121.481  0.00  0.00    -0.276 OA
ATOM     17  H   LIG d   1      -3.405  93.170 118.555  0.00  0.00     0.149 HD
ENDBRANCH   6  13
BRANCH   5  18
ATOM     18  N   LIG d   1      -1.402  91.661 121.298  0.00  0.00     0.381 N 
ATOM     19  H   LIG d   1      -2.218  91.451 121.837  0.00  0.00    -0.090 HD
ATOM     20  H   LIG d   1      -1.278  92.658 121.291  0.00  0.00    -0.090 HD
ATOM     21  H   LIG d   1      -0.605  91.222 121.704  0.00  0.00    -0.090 HD
ENDBRANCH   5  18
BRANCH   3  22
ATOM     22  C   LIG d   1      -0.469  88.147 118.181  0.00  0.00     0.382 C 
ATOM     23  O   LIG d   1      -0.115  87.240 118.974  0.00  0.00    -0.241 OA
ATOM     24  O   LIG d   1       0.005  88.173 117.029  0.00  0.00    -0.241 OA
ENDBRANCH   3  22
TORSDOF 7
ENDMDL
MODEL 5
REMARK VINA RESULT:      -4.2      2.495      4.534
REMARK  7 active torsions:
REMARK  status: ('A' for Active; 'I' for Inactive)
REMARK    1  A    between atoms: C_2  and  C_3 
REMARK    2  A    between atoms: C_3  and  O_6 
REMARK    3  A    between atoms: C_3  and  C_4 
REMARK    4  A    between atoms: C_7  and  O_6 
REMARK    5  A    between atoms: C_9  and  C_10 
REMARK    6  A    between atoms: N_15  and  C_14 
REMARK    7  A    between atoms: N_20  and  C_19 
REMARK       I    between atoms: C_22  and  N_20 
ROOT
ATOM      1  C   LIG d   1      -5.155  92.948 119.158  0.00  0.00     0.161 C 
ATOM      2  C   LIG d   1      -6.405  93.299 118.622  0.00  0.00     0.016 C 
ATOM      3  C   LIG d   1      -7.095  94.484 118.967  0.00  0.00     0.038 C 
ATOM      4  C   LIG d   1      -6.508  95.479 119.763  0.00  0.00     0.028 C 
ATOM      5  C   LIG d   1      -5.459  94.940 120.730  0.00  0.00    -0.047 C 
ATOM      6  C   LIG d   1      -4.449  94.074 119.943  0.00  0.00     0.091 C 
ENDROOT
BRANCH   1   7
ATOM      7  O   LIG d   1      -4.296  92.453 118.112  0.00  0.00    -0.368 OA
BRANCH   7   8
ATOM      8  C   LIG d   1      -4.246  91.013 117.957  0.00  0.00     0.119 C 
BRANCH   8   9
ATOM      9  C   LIG d   1      -2.772  90.584 118.083  0.00  0.00     0.028 C 
ATOM     10  C   LIG d   1      -2.600  89.056 118.048  0.00  0.00     0.006 C 
ENDBRANCH   8   9
BRANCH   8  11
ATOM     11  C   LIG d   1      -4.673  90.589 116.548  0.00  0.00     0.028 C 
ATOM     12  C   LIG d   1      -6.199  90.561 116.371  0.00  0.00     0.006 C 
ENDBRANCH   8  11
ENDBRANCH   7   8
ENDBRANCH   1   7
BRANCH   6  13
ATOM     13  N   LIG d   1      -3.437  93.439 120.827  0.00  0.00    -0.311 N 
ATOM     14  C   LIG d   1      -2.262  93.997 121.116  0.00  0.00     0.210 C 
ATOM     15  C   LIG d   1      -1.358  93.165 122.030  0.00  0.00     0.109 C 
ATOM     16  O   LIG d   1      -1.897  95.117 120.727  0.00  0.00    -0.276 OA
ATOM     17  H   LIG d   1      -3.664  92.543 121.211  0.00  0.00     0.149 HD
ENDBRANCH   6  13
BRANCH   5  18
ATOM     18  N   LIG d   1      -4.832  96.096 121.398  0.00  0.00     0.381 N 
ATOM     19  H   LIG d   1      -4.935  96.012 122.389  0.00  0.00    -0.090 HD
ATOM     20  H   LIG d   1      -5.300  96.935 121.102  0.00  0.00    -0.090 HD
ATOM     21  H   LIG d   1      -3.866  96.145 121.160  0.00  0.00    -0.090 HD
ENDBRANCH   5  18
BRANCH   3  22
ATOM     22  C   LIG d   1      -8.403  94.665 118.546  0.00  0.00     0.382 C 
ATOM     23  O   LIG d   1      -8.661  94.756 117.321  0.00  0.00    -0.241 OA
ATOM     24  O   LIG d   1      -9.324  94.782 119.376  0.00  0.00    -0.241 OA
ENDBRANCH   3  22
TORSDOF 7
ENDMDL
MODEL 6
REMARK VINA RESULT:      -4.2      2.549      4.627
REMARK  7 active torsions:
REMARK  status: ('A' for Active; 'I' for Inactive)
REMARK    1  A    between atoms: C_2  and  C_3 
REMARK    2  A    between atoms: C_3  and  O_6 
REMARK    3  A    between atoms: C_3  and  C_4 
REMARK    4  A    between atoms: C_7  and  O_6 
REMARK    5  A    between atoms: C_9  and  C_10 
REMARK    6  A    between atoms: N_15  and  C_14 
REMARK    7  A    between atoms: N_20  and  C_19 
REMARK       I    between atoms: C_22  and  N_20 
ROOT
ATOM      1  C   LIG d   1      -5.558  92.541 119.326  0.00  0.00     0.161 C 
ATOM      2  C   LIG d   1      -6.948  92.602 119.521  0.00  0.00     0.016 C 
ATOM      3  C   LIG d   1      -7.548  93.139 120.683  0.00  0.00     0.038 C 
ATOM      4  C   LIG d   1      -6.797  93.795 121.669  0.00  0.00     0.028 C 
ATOM      5  C   LIG d   1      -5.353  93.310 121.754  0.00  0.00    -0.047 C 
ATOM      6  C   LIG d   1      -4.726  93.352 120.341  0.00  0.00     0.091 C 
ENDROOT
BRANCH   1   7
ATOM      7  O   LIG d   1      -5.236  92.943 117.980  0.00  0.00    -0.368 OA
BRANCH   7   8
ATOM      8  C   LIG d   1      -4.696  91.911 117.118  0.00  0.00     0.119 C 
BRANCH   8   9
ATOM      9  C   LIG d   1      -5.760  91.599 116.048  0.00  0.00     0.028 C 
ATOM     10  C   LIG d   1      -6.744  90.506 116.499  0.00  0.00     0.006 C 
ENDBRANCH   8   9
BRANCH   8  11
ATOM     11  C   LIG d   1      -4.492  90.599 117.881  0.00  0.00     0.028 C 
ATOM     12  C   LIG d   1      -3.040  90.099 117.828  0.00  0.00     0.006 C 
ENDBRANCH   8  11
ENDBRANCH   7   8
ENDBRANCH   1   7
BRANCH   6  13
ATOM     13  N   LIG d   1      -3.341  92.815 120.320  0.00  0.00    -0.311 N 
ATOM     14  C   LIG d   1      -2.257  93.575 120.468  0.00  0.00     0.210 C 
ATOM     15  C   LIG d   1      -0.925  92.823 120.393  0.00  0.00     0.109 C 
ATOM     16  O   LIG d   1      -2.274  94.796 120.685  0.00  0.00    -0.276 OA
ATOM     17  H   LIG d   1      -3.236  91.829 120.180  0.00  0.00     0.149 HD
ENDBRANCH   6  13
BRANCH   5  18
ATOM     18  N   LIG d   1      -4.650  94.171 122.724  0.00  0.00     0.381 N 
ATOM     19  H   LIG d   1      -4.662  95.120 122.407  0.00  0.00    -0.090 HD
ATOM     20  H   LIG d   1      -3.693  93.872 122.790  0.00  0.00    -0.090 HD
ATOM     21  H   LIG d   1      -5.088  94.106 123.617  0.00  0.00    -0.090 HD
ENDBRANCH   5  18
BRANCH   3  22
ATOM     22  C   LIG d   1      -8.911  92.987 120.885  0.00  0.00     0.382 C 
ATOM     23  O   LIG d   1      -9.720  93.340 119.993  0.00  0.00    -0.241 OA
ATOM     24  O   LIG d   1      -9.344  92.544 121.966  0.00  0.00    -0.241 OA
ENDBRANCH   3  22
TORSDOF 7
ENDMDL
MODEL 7
REMARK VINA RESULT:      -4.1      2.633      4.572
REMARK  7 active torsions:
REMARK  status: ('A' for Active; 'I' for Inactive)
REMARK    1  A    between atoms: C_2  and  C_3 
REMARK    2  A    between atoms: C_3  and  O_6 
REMARK    3  A    between atoms: C_3  and  C_4 
REMARK    4  A    between atoms: C_7  and  O_6 
REMARK    5  A    between atoms: C_9  and  C_10 
REMARK    6  A    between atoms: N_15  and  C_14 
REMARK    7  A    between atoms: N_20  and  C_19 
REMARK       I    between atoms: C_22  and  N_20 
ROOT
ATOM      1  C   LIG d   1      -1.928  89.944 118.444  0.00  0.00     0.161 C 
ATOM      2  C   LIG d   1      -3.081  90.016 117.645  0.00  0.00     0.016 C 
ATOM      3  C   LIG d   1      -3.967  91.118 117.656  0.00  0.00     0.038 C 
ATOM      4  C   LIG d   1      -3.678  92.296 118.360  0.00  0.00     0.028 C 
ATOM      5  C   LIG d   1      -2.782  92.071 119.574  0.00  0.00    -0.047 C 
ATOM      6  C   LIG d   1      -1.536  91.267 119.136  0.00  0.00     0.091 C 
ENDROOT
BRANCH   1   7
ATOM      7  O   LIG d   1      -0.824  89.440 117.665  0.00  0.00    -0.368 OA
BRANCH   7   8
ATOM      8  C   LIG d   1      -0.321  88.135 118.042  0.00  0.00     0.119 C 
BRANCH   8   9
ATOM      9  C   LIG d   1      -1.176  87.633 119.222  0.00  0.00     0.028 C 
ATOM     10  C   LIG d   1      -0.385  86.718 120.172  0.00  0.00     0.006 C 
ENDBRANCH   8   9
BRANCH   8  11
ATOM     11  C   LIG d   1       1.108  88.224 118.585  0.00  0.00     0.028 C 
ATOM     12  C   LIG d   1       1.897  89.405 117.996  0.00  0.00     0.006 C 
ENDBRANCH   8  11
ENDBRANCH   7   8
ENDBRANCH   1   7
BRANCH   6  13
ATOM     13  N   LIG d   1      -0.648  90.931 120.279  0.00  0.00    -0.311 N 
ATOM     14  C   LIG d   1       0.422  91.651 120.612  0.00  0.00     0.210 C 
ATOM     15  C   LIG d   1       1.212  91.118 121.812  0.00  0.00     0.109 C 
ATOM     16  O   LIG d   1       0.773  92.698 120.049  0.00  0.00    -0.276 OA
ATOM     17  H   LIG d   1      -0.877  90.114 120.810  0.00  0.00     0.149 HD
ENDBRANCH   6  13
BRANCH   5  18
ATOM     18  N   LIG d   1      -2.448  93.395 120.133  0.00  0.00     0.381 N 
ATOM     19  H   LIG d   1      -2.600  93.393 121.121  0.00  0.00    -0.090 HD
ATOM     20  H   LIG d   1      -3.053  94.083 119.721  0.00  0.00    -0.090 HD
ATOM     21  H   LIG d   1      -1.497  93.618 119.936  0.00  0.00    -0.090 HD
ENDBRANCH   5  18
BRANCH   3  22
ATOM     22  C   LIG d   1      -5.179  91.031 116.987  0.00  0.00     0.382 C 
ATOM     23  O   LIG d   1      -5.461  89.999 116.332  0.00  0.00    -0.241 OA
ATOM     24  O   LIG d   1      -5.975  91.990 116.995  0.00  0.00    -0.241 OA
ENDBRANCH   3  22
TORSDOF 7
ENDMDL
MODEL 8
REMARK VINA RESULT:      -3.9      3.127      4.905
REMARK  7 active torsions:
REMARK  status: ('A' for Active; 'I' for Inactive)
REMARK    1  A    between atoms: C_2  and  C_3 
REMARK    2  A    between atoms: C_3  and  O_6 
REMARK    3  A    between atoms: C_3  and  C_4 
REMARK    4  A    between atoms: C_7  and  O_6 
REMARK    5  A    between atoms: C_9  and  C_10 
REMARK    6  A    between atoms: N_15  and  C_14 
REMARK    7  A    between atoms: N_20  and  C_19 
REMARK       I    between atoms: C_22  and  N_20 
ROOT
ATOM      1  C   LIG d   1      -1.760  89.338 119.463  0.00  0.00     0.161 C 
ATOM      2  C   LIG d   1      -2.877  89.569 118.644  0.00  0.00     0.016 C 
ATOM      3  C   LIG d   1      -3.146  90.813 118.028  0.00  0.00     0.038 C 
ATOM      4  C   LIG d   1      -2.229  91.874 118.068  0.00  0.00     0.028 C 
ATOM      5  C   LIG d   1      -1.330  91.851 119.299  0.00  0.00    -0.047 C 
ATOM      6  C   LIG d   1      -0.690  90.450 119.428  0.00  0.00     0.091 C 
ENDROOT
BRANCH   1   7
ATOM      7  O   LIG d   1      -1.169  88.064 119.136  0.00  0.00    -0.368 OA
BRANCH   7   8
ATOM      8  C   LIG d   1      -0.876  87.191 120.254  0.00  0.00     0.119 C 
BRANCH   8   9
ATOM      9  C   LIG d   1       0.563  86.672 120.072  0.00  0.00     0.028 C 
ATOM     10  C   LIG d   1       1.199  87.156 118.758  0.00  0.00     0.006 C 
ENDBRANCH   8   9
BRANCH   8  11
ATOM     11  C   LIG d   1      -1.763  85.942 120.234  0.00  0.00     0.028 C 
ATOM     12  C   LIG d   1      -3.016  86.087 121.112  0.00  0.00     0.006 C 
ENDBRANCH   8  11
ENDBRANCH   7   8
ENDBRANCH   1   7
BRANCH   6  13
ATOM     13  N   LIG d   1       0.139  90.315 120.654  0.00  0.00    -0.311 N 
ATOM     14  C   LIG d   1       1.462  90.470 120.665  0.00  0.00     0.210 C 
ATOM     15  C   LIG d   1       2.125  90.268 122.031  0.00  0.00     0.109 C 
ATOM     16  O   LIG d   1       2.145  90.786 119.679  0.00  0.00    -0.276 OA
ATOM     17  H   LIG d   1      -0.338  90.091 121.505  0.00  0.00     0.149 HD
ENDBRANCH   6  13
BRANCH   5  18
ATOM     18  N   LIG d   1      -0.334  92.929 119.144  0.00  0.00     0.381 N 
ATOM     19  H   LIG d   1      -0.513  93.436 118.300  0.00  0.00    -0.090 HD
ATOM     20  H   LIG d   1       0.581  92.519 119.078  0.00  0.00    -0.090 HD
ATOM     21  H   LIG d   1      -0.375  93.545 119.925  0.00  0.00    -0.090 HD
ENDBRANCH   5  18
BRANCH   3  22
ATOM     22  C   LIG d   1      -4.363  91.018 117.396  0.00  0.00     0.382 C 
ATOM     23  O   LIG d   1      -4.947  90.059 116.835  0.00  0.00    -0.241 OA
ATOM     24  O   LIG d   1      -4.862  92.157 117.341  0.00  0.00    -0.241 OA
ENDBRANCH   3  22
TORSDOF 7
ENDMDL
MODEL 9
REMARK VINA RESULT:      -3.8      2.472      3.323
REMARK  7 active torsions:
REMARK  status: ('A' for Active; 'I' for Inactive)
REMARK    1  A    between atoms: C_2  and  C_3 
REMARK    2  A    between atoms: C_3  and  O_6 
REMARK    3  A    between atoms: C_3  and  C_4 
REMARK    4  A    between atoms: C_7  and  O_6 
REMARK    5  A    between atoms: C_9  and  C_10 
REMARK    6  A    between atoms: N_15  and  C_14 
REMARK    7  A    between atoms: N_20  and  C_19 
REMARK       I    between atoms: C_22  and  N_20 
ROOT
ATOM      1  C   LIG d   1      -1.655  92.075 119.152  0.00  0.00     0.161 C 
ATOM      2  C   LIG d   1      -2.987  92.282 118.754  0.00  0.00     0.016 C 
ATOM      3  C   LIG d   1      -3.735  91.336 118.017  0.00  0.00     0.038 C 
ATOM      4  C   LIG d   1      -3.248  90.047 117.755  0.00  0.00     0.028 C 
ATOM      5  C   LIG d   1      -1.726  89.974 117.698  0.00  0.00    -0.047 C 
ATOM      6  C   LIG d   1      -1.144  90.630 118.972  0.00  0.00     0.091 C 
ENDROOT
BRANCH   1   7
ATOM      7  O   LIG d   1      -1.481  92.501 120.517  0.00  0.00    -0.368 OA
BRANCH   7   8
ATOM      8  C   LIG d   1      -1.105  93.887 120.709  0.00  0.00     0.119 C 
BRANCH   8   9
ATOM      9  C   LIG d   1       0.146  94.151 119.849  0.00  0.00     0.028 C 
ATOM     10  C   LIG d   1       0.682  95.583 120.017  0.00  0.00     0.006 C 
ENDBRANCH   8   9
BRANCH   8  11
ATOM     11  C   LIG d   1      -0.667  94.151 122.153  0.00  0.00     0.028 C 
ATOM     12  C   LIG d   1       0.188  93.014 122.734  0.00  0.00     0.006 C 
ENDBRANCH   8  11
ENDBRANCH   7   8
ENDBRANCH   1   7
BRANCH   6  13
ATOM     13  N   LIG d   1       0.341  90.677 118.957  0.00  0.00    -0.311 N 
ATOM     14  C   LIG d   1       1.109  89.740 119.510  0.00  0.00     0.210 C 
ATOM     15  C   LIG d   1       2.616  89.992 119.400  0.00  0.00     0.109 C 
ATOM     16  O   LIG d   1       0.687  88.708 120.053  0.00  0.00    -0.276 OA
ATOM     17  H   LIG d   1       0.768  91.464 118.510  0.00  0.00     0.149 HD
ENDBRANCH   6  13
BRANCH   5  18
ATOM     18  N   LIG d   1      -1.352  88.554 117.557  0.00  0.00     0.381 N 
ATOM     19  H   LIG d   1      -0.567  88.470 116.943  0.00  0.00    -0.090 HD
ATOM     20  H   LIG d   1      -2.124  88.054 117.153  0.00  0.00    -0.090 HD
ATOM     21  H   LIG d   1      -1.128  88.170 118.448  0.00  0.00    -0.090 HD
ENDBRANCH   5  18
BRANCH   3  22
ATOM     22  C   LIG d   1      -4.971  91.691 117.498  0.00  0.00     0.382 C 
ATOM     23  O   LIG d   1      -5.894  92.050 118.268  0.00  0.00    -0.241 OA
ATOM     24  O   LIG d   1      -5.188  91.615 116.274  0.00  0.00    -0.241 OA
ENDBRANCH   3  22
TORSDOF 7
ENDMDL
