MODEL 1
REMARK VINA RESULT:      -5.3      0.000      0.000
REMARK  7 active torsions:
REMARK  status: ('A' for Active; 'I' for Inactive)
REMARK    1  A    between atoms: C_2  and  C_3 
REMARK    2  A    between atoms: C_3  and  O_6 
REMARK    3  A    between atoms: C_3  and  C_4 
REMARK    4  A    between atoms: C_7  and  O_6 
REMARK    5  A    between atoms: C_9  and  C_10 
REMARK    6  A    between atoms: N_15  and  C_14 
REMARK    7  A    between atoms: N_20  and  C_19 
REMARK       I    between atoms: C_22  and  N_20 
ROOT
ATOM      1  C   LIG d   1      -5.377  93.167 118.879  0.00  0.00     0.161 C 
ATOM      2  C   LIG d   1      -5.525  92.174 117.895  0.00  0.00     0.016 C 
ATOM      3  C   LIG d   1      -6.608  92.134 116.987  0.00  0.00     0.038 C 
ATOM      4  C   LIG d   1      -7.544  93.175 116.903  0.00  0.00     0.028 C 
ATOM      5  C   LIG d   1      -7.720  93.939 118.211  0.00  0.00    -0.047 C 
ATOM      6  C   LIG d   1      -6.329  94.372 118.729  0.00  0.00     0.091 C 
ENDROOT
BRANCH   1   7
ATOM      7  O   LIG d   1      -4.007  93.612 118.922  0.00  0.00    -0.368 OA
BRANCH   7   8
ATOM      8  C   LIG d   1      -3.001  92.605 118.655  0.00  0.00     0.119 C 
BRANCH   8   9
ATOM      9  C   LIG d   1      -2.673  91.913 119.992  0.00  0.00     0.028 C 
ATOM     10  C   LIG d   1      -2.519  90.390 119.842  0.00  0.00     0.006 C 
ENDBRANCH   8   9
BRANCH   8  11
ATOM     11  C   LIG d   1      -1.685  93.240 118.195  0.00  0.00     0.028 C 
ATOM     12  C   LIG d   1      -1.429  94.612 118.837  0.00  0.00     0.006 C 
ENDBRANCH   8  11
ENDBRANCH   7   8
ENDBRANCH   1   7
BRANCH   6  13
ATOM     13  N   LIG d   1      -6.403  95.053 120.048  0.00  0.00    -0.311 N 
ATOM     14  C   LIG d   1      -6.474  96.376 120.187  0.00  0.00     0.210 C 
ATOM     15  C   LIG d   1      -6.522  96.872 121.636  0.00  0.00     0.109 C 
ATOM     16  O   LIG d   1      -6.534  97.183 119.248  0.00  0.00    -0.276 OA
ATOM     17  H   LIG d   1      -6.391  94.471 120.863  0.00  0.00     0.149 HD
ENDBRANCH   6  13
BRANCH   5  18
ATOM     18  N   LIG d   1      -8.618  95.079 117.944  0.00  0.00     0.381 N 
ATOM     19  H   LIG d   1      -9.199  95.246 118.741  0.00  0.00    -0.090 HD
ATOM     20  H   LIG d   1      -9.209  94.851 117.164  0.00  0.00    -0.090 HD
ATOM     21  H   LIG d   1      -8.082  95.893 117.738  0.00  0.00    -0.090 HD
ENDBRANCH   5  18
BRANCH   3  22
ATOM     22  C   LIG d   1      -6.785  91.022 116.178  0.00  0.00     0.382 C 
ATOM     23  O   LIG d   1      -7.931  90.538 116.019  0.00  0.00    -0.241 OA
ATOM     24  O   LIG d   1      -5.806  90.469 115.641  0.00  0.00    -0.241 OA
ENDBRANCH   3  22
TORSDOF 7
ENDMDL
MODEL 2
REMARK VINA RESULT:      -5.1      2.249      4.568
REMARK  7 active torsions:
REMARK  status: ('A' for Active; 'I' for Inactive)
REMARK    1  A    between atoms: C_2  and  C_3 
REMARK    2  A    between atoms: C_3  and  O_6 
REMARK    3  A    between atoms: C_3  and  C_4 
REMARK    4  A    between atoms: C_7  and  O_6 
REMARK    5  A    between atoms: C_9  and  C_10 
REMARK    6  A    between atoms: N_15  and  C_14 
REMARK    7  A    between atoms: N_20  and  C_19 
REMARK       I    between atoms: C_22  and  N_20 
ROOT
ATOM      1  C   LIG d   1      -6.119  93.833 118.838  0.00  0.00     0.161 C 
ATOM      2  C   LIG d   1      -6.795  93.109 117.842  0.00  0.00     0.016 C 
ATOM      3  C   LIG d   1      -6.207  92.047 117.118  0.00  0.00     0.038 C 
ATOM      4  C   LIG d   1      -4.943  91.534 117.448  0.00  0.00     0.028 C 
ATOM      5  C   LIG d   1      -4.027  92.559 118.108  0.00  0.00    -0.047 C 
ATOM      6  C   LIG d   1      -4.778  93.216 119.289  0.00  0.00     0.091 C 
ENDROOT
BRANCH   1   7
ATOM      7  O   LIG d   1      -6.986  94.030 119.973  0.00  0.00    -0.368 OA
BRANCH   7   8
ATOM      8  C   LIG d   1      -7.557  95.354 120.116  0.00  0.00     0.119 C 
BRANCH   8   9
ATOM      9  C   LIG d   1      -9.000  95.296 119.579  0.00  0.00     0.028 C 
ATOM     10  C   LIG d   1     -10.026  94.998 120.684  0.00  0.00     0.006 C 
ENDBRANCH   8   9
BRANCH   8  11
ATOM     11  C   LIG d   1      -6.834  96.372 119.229  0.00  0.00     0.028 C 
ATOM     12  C   LIG d   1      -7.724  96.917 118.100  0.00  0.00     0.006 C 
ENDBRANCH   8  11
ENDBRANCH   7   8
ENDBRANCH   1   7
BRANCH   6  13
ATOM     13  N   LIG d   1      -3.983  94.292 119.938  0.00  0.00    -0.311 N 
ATOM     14  C   LIG d   1      -3.191  94.085 120.988  0.00  0.00     0.210 C 
ATOM     15  C   LIG d   1      -2.477  95.335 121.515  0.00  0.00     0.109 C 
ATOM     16  O   LIG d   1      -2.986  92.981 121.513  0.00  0.00    -0.276 OA
ATOM     17  H   LIG d   1      -4.066  95.213 119.556  0.00  0.00     0.149 HD
ENDBRANCH   6  13
BRANCH   5  18
ATOM     18  N   LIG d   1      -2.798  91.857 118.523  0.00  0.00     0.381 N 
ATOM     19  H   LIG d   1      -2.051  92.515 118.627  0.00  0.00    -0.090 HD
ATOM     20  H   LIG d   1      -2.542  91.200 117.807  0.00  0.00    -0.090 HD
ATOM     21  H   LIG d   1      -2.952  91.380 119.383  0.00  0.00    -0.090 HD
ENDBRANCH   5  18
BRANCH   3  22
ATOM     22  C   LIG d   1      -6.869  91.512 116.024  0.00  0.00     0.382 C 
ATOM     23  O   LIG d   1      -6.557  90.373 115.597  0.00  0.00    -0.241 OA
ATOM     24  O   LIG d   1      -7.743  92.171 115.430  0.00  0.00    -0.241 OA
ENDBRANCH   3  22
TORSDOF 7
ENDMDL
MODEL 3
REMARK VINA RESULT:      -4.8      1.953      3.379
REMARK  7 active torsions:
REMARK  status: ('A' for Active; 'I' for Inactive)
REMARK    1  A    between atoms: C_2  and  C_3 
REMARK    2  A    between atoms: C_3  and  O_6 
REMARK    3  A    between atoms: C_3  and  C_4 
REMARK    4  A    between atoms: C_7  and  O_6 
REMARK    5  A    between atoms: C_9  and  C_10 
REMARK    6  A    between atoms: N_15  and  C_14 
REMARK    7  A    between atoms: N_20  and  C_19 
REMARK       I    between atoms: C_22  and  N_20 
ROOT
ATOM      1  C   LIG d   1      -5.451  93.589 120.032  0.00  0.00     0.161 C 
ATOM      2  C   LIG d   1      -4.430  92.709 119.635  0.00  0.00     0.016 C 
ATOM      3  C   LIG d   1      -4.464  91.972 118.429  0.00  0.00     0.038 C 
ATOM      4  C   LIG d   1      -5.455  92.182 117.459  0.00  0.00     0.028 C 
ATOM      5  C   LIG d   1      -6.772  92.688 118.039  0.00  0.00    -0.047 C 
ATOM      6  C   LIG d   1      -6.487  93.914 118.936  0.00  0.00     0.091 C 
ENDROOT
BRANCH   1   7
ATOM      7  O   LIG d   1      -4.874  94.803 120.553  0.00  0.00    -0.368 OA
BRANCH   7   8
ATOM      8  C   LIG d   1      -4.221  95.663 119.587  0.00  0.00     0.119 C 
BRANCH   8   9
ATOM      9  C   LIG d   1      -2.768  95.867 120.057  0.00  0.00     0.028 C 
ATOM     10  C   LIG d   1      -1.755  95.119 119.174  0.00  0.00     0.006 C 
ENDBRANCH   8   9
BRANCH   8  11
ATOM     11  C   LIG d   1      -4.844  97.063 119.577  0.00  0.00     0.028 C 
ATOM     12  C   LIG d   1      -5.781  97.306 120.771  0.00  0.00     0.006 C 
ENDBRANCH   8  11
ENDBRANCH   7   8
ENDBRANCH   1   7
BRANCH   6  13
ATOM     13  N   LIG d   1      -7.711  94.421 119.610  0.00  0.00    -0.311 N 
ATOM     14  C   LIG d   1      -8.455  95.414 119.128  0.00  0.00     0.210 C 
ATOM     15  C   LIG d   1      -9.663  95.794 119.990  0.00  0.00     0.109 C 
ATOM     16  O   LIG d   1      -8.248  95.996 118.053  0.00  0.00    -0.276 OA
ATOM     17  H   LIG d   1      -7.970  93.984 120.473  0.00  0.00     0.149 HD
ENDBRANCH   6  13
BRANCH   5  18
ATOM     18  N   LIG d   1      -7.668  92.994 116.909  0.00  0.00     0.381 N 
ATOM     19  H   LIG d   1      -8.326  93.698 117.179  0.00  0.00    -0.090 HD
ATOM     20  H   LIG d   1      -8.178  92.164 116.664  0.00  0.00    -0.090 HD
ATOM     21  H   LIG d   1      -7.136  93.309 116.127  0.00  0.00    -0.090 HD
ENDBRANCH   5  18
BRANCH   3  22
ATOM     22  C   LIG d   1      -3.518  90.984 118.201  0.00  0.00     0.382 C 
ATOM     23  O   LIG d   1      -2.312  91.194 118.478  0.00  0.00    -0.241 OA
ATOM     24  O   LIG d   1      -3.848  89.902 117.680  0.00  0.00    -0.241 OA
ENDBRANCH   3  22
TORSDOF 7
ENDMDL
MODEL 4
REMARK VINA RESULT:      -4.7      2.927      6.416
REMARK  7 active torsions:
REMARK  status: ('A' for Active; 'I' for Inactive)
REMARK    1  A    between atoms: C_2  and  C_3 
REMARK    2  A    between atoms: C_3  and  O_6 
REMARK    3  A    between atoms: C_3  and  C_4 
REMARK    4  A    between atoms: C_7  and  O_6 
REMARK    5  A    between atoms: C_9  and  C_10 
REMARK    6  A    between atoms: N_15  and  C_14 
REMARK    7  A    between atoms: N_20  and  C_19 
REMARK       I    between atoms: C_22  and  N_20 
ROOT
ATOM      1  C   LIG d   1      -3.344  93.031 120.164  0.00  0.00     0.161 C 
ATOM      2  C   LIG d   1      -3.143  94.421 120.133  0.00  0.00     0.016 C 
ATOM      3  C   LIG d   1      -2.169  95.048 119.321  0.00  0.00     0.038 C 
ATOM      4  C   LIG d   1      -1.428  94.335 118.367  0.00  0.00     0.028 C 
ATOM      5  C   LIG d   1      -1.242  92.863 118.721  0.00  0.00    -0.047 C 
ATOM      6  C   LIG d   1      -2.622  92.248 119.048  0.00  0.00     0.091 C 
ENDROOT
BRANCH   1   7
ATOM      7  O   LIG d   1      -4.756  92.742 120.145  0.00  0.00    -0.368 OA
BRANCH   7   8
ATOM      8  C   LIG d   1      -5.551  93.505 119.204  0.00  0.00     0.119 C 
BRANCH   8   9
ATOM      9  C   LIG d   1      -6.783  94.035 119.962  0.00  0.00     0.028 C 
ATOM     10  C   LIG d   1      -6.679  93.812 121.481  0.00  0.00     0.006 C 
ENDBRANCH   8   9
BRANCH   8  11
ATOM     11  C   LIG d   1      -6.111  92.611 118.095  0.00  0.00     0.028 C 
ATOM     12  C   LIG d   1      -7.360  93.205 117.424  0.00  0.00     0.006 C 
ENDBRANCH   8  11
ENDBRANCH   7   8
ENDBRANCH   1   7
BRANCH   6  13
ATOM     13  N   LIG d   1      -2.521  90.831 119.486  0.00  0.00    -0.311 N 
ATOM     14  C   LIG d   1      -3.079  89.818 118.826  0.00  0.00     0.210 C 
ATOM     15  C   LIG d   1      -2.870  88.439 119.461  0.00  0.00     0.109 C 
ATOM     16  O   LIG d   1      -3.699  89.926 117.757  0.00  0.00    -0.276 OA
ATOM     17  H   LIG d   1      -2.009  90.649 120.327  0.00  0.00     0.149 HD
ENDBRANCH   6  13
BRANCH   5  18
ATOM     18  N   LIG d   1      -0.574  92.211 117.579  0.00  0.00     0.381 N 
ATOM     19  H   LIG d   1      -0.106  92.899 117.023  0.00  0.00    -0.090 HD
ATOM     20  H   LIG d   1      -1.269  91.764 117.008  0.00  0.00    -0.090 HD
ATOM     21  H   LIG d   1       0.081  91.537 117.907  0.00  0.00    -0.090 HD
ENDBRANCH   5  18
BRANCH   3  22
ATOM     22  C   LIG d   1      -1.900  96.398 119.489  0.00  0.00     0.382 C 
ATOM     23  O   LIG d   1      -2.673  97.111 120.174  0.00  0.00    -0.241 OA
ATOM     24  O   LIG d   1      -0.919  96.922 118.928  0.00  0.00    -0.241 OA
ENDBRANCH   3  22
TORSDOF 7
ENDMDL
MODEL 5
REMARK VINA RESULT:      -4.7      2.452      3.577
REMARK  7 active torsions:
REMARK  status: ('A' for Active; 'I' for Inactive)
REMARK    1  A    between atoms: C_2  and  C_3 
REMARK    2  A    between atoms: C_3  and  O_6 
REMARK    3  A    between atoms: C_3  and  C_4 
REMARK    4  A    between atoms: C_7  and  O_6 
REMARK    5  A    between atoms: C_9  and  C_10 
REMARK    6  A    between atoms: N_15  and  C_14 
REMARK    7  A    between atoms: N_20  and  C_19 
REMARK       I    between atoms: C_22  and  N_20 
ROOT
ATOM      1  C   LIG d   1      -3.555  91.629 118.882  0.00  0.00     0.161 C 
ATOM      2  C   LIG d   1      -4.410  91.422 117.787  0.00  0.00     0.016 C 
ATOM      3  C   LIG d   1      -5.611  92.142 117.591  0.00  0.00     0.038 C 
ATOM      4  C   LIG d   1      -5.964  93.231 118.403  0.00  0.00     0.028 C 
ATOM      5  C   LIG d   1      -5.388  93.147 119.812  0.00  0.00    -0.047 C 
ATOM      6  C   LIG d   1      -3.867  92.888 119.717  0.00  0.00     0.091 C 
ENDROOT
BRANCH   1   7
ATOM      7  O   LIG d   1      -2.185  91.652 118.434  0.00  0.00    -0.368 OA
BRANCH   7   8
ATOM      8  C   LIG d   1      -1.352  90.552 118.876  0.00  0.00     0.119 C 
BRANCH   8   9
ATOM      9  C   LIG d   1       0.070  91.106 119.092  0.00  0.00     0.028 C 
ATOM     10  C   LIG d   1       0.430  91.232 120.582  0.00  0.00     0.006 C 
ENDBRANCH   8   9
BRANCH   8  11
ATOM     11  C   LIG d   1      -1.210  89.487 117.785  0.00  0.00     0.028 C 
ATOM     12  C   LIG d   1      -1.306  88.055 118.334  0.00  0.00     0.006 C 
ENDBRANCH   8  11
ENDBRANCH   7   8
ENDBRANCH   1   7
BRANCH   6  13
ATOM     13  N   LIG d   1      -3.238  92.709 121.052  0.00  0.00    -0.311 N 
ATOM     14  C   LIG d   1      -2.315  93.534 121.544  0.00  0.00     0.210 C 
ATOM     15  C   LIG d   1      -1.783  93.155 122.930  0.00  0.00     0.109 C 
ATOM     16  O   LIG d   1      -1.909  94.560 120.978  0.00  0.00    -0.276 OA
ATOM     17  H   LIG d   1      -3.532  91.919 121.592  0.00  0.00     0.149 HD
ENDBRANCH   6  13
BRANCH   5  18
ATOM     18  N   LIG d   1      -5.718  94.408 120.504  0.00  0.00     0.381 N 
ATOM     19  H   LIG d   1      -5.016  94.613 121.187  0.00  0.00    -0.090 HD
ATOM     20  H   LIG d   1      -6.596  94.298 120.978  0.00  0.00    -0.090 HD
ATOM     21  H   LIG d   1      -5.778  95.153 119.845  0.00  0.00    -0.090 HD
ENDBRANCH   5  18
BRANCH   3  22
ATOM     22  C   LIG d   1      -6.494  91.749 116.596  0.00  0.00     0.382 C 
ATOM     23  O   LIG d   1      -7.539  92.411 116.388  0.00  0.00    -0.241 OA
ATOM     24  O   LIG d   1      -6.281  90.716 115.935  0.00  0.00    -0.241 OA
ENDBRANCH   3  22
TORSDOF 7
ENDMDL
MODEL 6
REMARK VINA RESULT:      -4.5      2.899      4.815
REMARK  7 active torsions:
REMARK  status: ('A' for Active; 'I' for Inactive)
REMARK    1  A    between atoms: C_2  and  C_3 
REMARK    2  A    between atoms: C_3  and  O_6 
REMARK    3  A    between atoms: C_3  and  C_4 
REMARK    4  A    between atoms: C_7  and  O_6 
REMARK    5  A    between atoms: C_9  and  C_10 
REMARK    6  A    between atoms: N_15  and  C_14 
REMARK    7  A    between atoms: N_20  and  C_19 
REMARK       I    between atoms: C_22  and  N_20 
ROOT
ATOM      1  C   LIG d   1      -3.162  90.491 118.695  0.00  0.00     0.161 C 
ATOM      2  C   LIG d   1      -4.140  90.634 117.697  0.00  0.00     0.016 C 
ATOM      3  C   LIG d   1      -4.982  91.765 117.589  0.00  0.00     0.038 C 
ATOM      4  C   LIG d   1      -4.800  92.904 118.388  0.00  0.00     0.028 C 
ATOM      5  C   LIG d   1      -4.157  92.601 119.737  0.00  0.00    -0.047 C 
ATOM      6  C   LIG d   1      -2.874  91.772 119.507  0.00  0.00     0.091 C 
ENDROOT
BRANCH   1   7
ATOM      7  O   LIG d   1      -1.945  89.980 118.117  0.00  0.00    -0.368 OA
BRANCH   7   8
ATOM      8  C   LIG d   1      -1.813  88.537 118.081  0.00  0.00     0.119 C 
BRANCH   8   9
ATOM      9  C   LIG d   1      -2.197  88.003 119.475  0.00  0.00     0.028 C 
ATOM     10  C   LIG d   1      -1.784  86.535 119.675  0.00  0.00     0.006 C 
ENDBRANCH   8   9
BRANCH   8  11
ATOM     11  C   LIG d   1      -0.355  88.116 117.874  0.00  0.00     0.028 C 
ATOM     12  C   LIG d   1       0.646  89.117 118.472  0.00  0.00     0.006 C 
ENDBRANCH   8  11
ENDBRANCH   7   8
ENDBRANCH   1   7
BRANCH   6  13
ATOM     13  N   LIG d   1      -2.228  91.361 120.781  0.00  0.00    -0.311 N 
ATOM     14  C   LIG d   1      -0.928  91.515 121.026  0.00  0.00     0.210 C 
ATOM     15  C   LIG d   1      -0.464  91.005 122.395  0.00  0.00     0.109 C 
ATOM     16  O   LIG d   1      -0.121  92.054 120.254  0.00  0.00    -0.276 OA
ATOM     17  H   LIG d   1      -2.815  90.943 121.476  0.00  0.00     0.149 HD
ENDBRANCH   6  13
BRANCH   5  18
ATOM     18  N   LIG d   1      -3.900  93.890 120.407  0.00  0.00     0.381 N 
ATOM     19  H   LIG d   1      -3.020  93.855 120.882  0.00  0.00    -0.090 HD
ATOM     20  H   LIG d   1      -4.620  94.051 121.089  0.00  0.00    -0.090 HD
ATOM     21  H   LIG d   1      -3.896  94.628 119.737  0.00  0.00    -0.090 HD
ENDBRANCH   5  18
BRANCH   3  22
ATOM     22  C   LIG d   1      -6.047  91.747 116.701  0.00  0.00     0.382 C 
ATOM     23  O   LIG d   1      -6.254  90.733 115.992  0.00  0.00    -0.241 OA
ATOM     24  O   LIG d   1      -6.776  92.748 116.568  0.00  0.00    -0.241 OA
ENDBRANCH   3  22
TORSDOF 7
ENDMDL
MODEL 7
REMARK VINA RESULT:      -4.4      5.490      8.246
REMARK  7 active torsions:
REMARK  status: ('A' for Active; 'I' for Inactive)
REMARK    1  A    between atoms: C_2  and  C_3 
REMARK    2  A    between atoms: C_3  and  O_6 
REMARK    3  A    between atoms: C_3  and  C_4 
REMARK    4  A    between atoms: C_7  and  O_6 
REMARK    5  A    between atoms: C_9  and  C_10 
REMARK    6  A    between atoms: N_15  and  C_14 
REMARK    7  A    between atoms: N_20  and  C_19 
REMARK       I    between atoms: C_22  and  N_20 
ROOT
ATOM      1  C   LIG d   1       0.431  90.117 118.851  0.00  0.00     0.161 C 
ATOM      2  C   LIG d   1       1.620  90.546 118.239  0.00  0.00     0.016 C 
ATOM      3  C   LIG d   1       2.368  89.747 117.344  0.00  0.00     0.038 C 
ATOM      4  C   LIG d   1       1.893  88.511 116.881  0.00  0.00     0.028 C 
ATOM      5  C   LIG d   1       0.947  87.820 117.857  0.00  0.00    -0.047 C 
ATOM      6  C   LIG d   1      -0.161  88.815 118.272  0.00  0.00     0.091 C 
ENDROOT
BRANCH   1   7
ATOM      7  O   LIG d   1      -0.549  91.173 118.811  0.00  0.00    -0.368 OA
BRANCH   7   8
ATOM      8  C   LIG d   1      -0.530  92.102 119.923  0.00  0.00     0.119 C 
BRANCH   8   9
ATOM      9  C   LIG d   1      -1.303  91.448 121.085  0.00  0.00     0.028 C 
ATOM     10  C   LIG d   1      -2.825  91.624 120.949  0.00  0.00     0.006 C 
ENDBRANCH   8   9
BRANCH   8  11
ATOM     11  C   LIG d   1      -1.302  93.383 119.592  0.00  0.00     0.028 C 
ATOM     12  C   LIG d   1      -1.452  93.614 118.080  0.00  0.00     0.006 C 
ENDBRANCH   8  11
ENDBRANCH   7   8
ENDBRANCH   1   7
BRANCH   6  13
ATOM     13  N   LIG d   1      -1.081  88.246 119.291  0.00  0.00    -0.311 N 
ATOM     14  C   LIG d   1      -2.406  88.365 119.230  0.00  0.00     0.210 C 
ATOM     15  C   LIG d   1      -3.167  87.722 120.394  0.00  0.00     0.109 C 
ATOM     16  O   LIG d   1      -3.025  88.914 118.306  0.00  0.00    -0.276 OA
ATOM     17  H   LIG d   1      -0.665  87.757 120.059  0.00  0.00     0.149 HD
ENDBRANCH   6  13
BRANCH   5  18
ATOM     18  N   LIG d   1       0.422  86.613 117.191  0.00  0.00     0.381 N 
ATOM     19  H   LIG d   1      -0.056  86.039 117.857  0.00  0.00    -0.090 HD
ATOM     20  H   LIG d   1       1.192  86.087 116.817  0.00  0.00    -0.090 HD
ATOM     21  H   LIG d   1      -0.201  86.872 116.458  0.00  0.00    -0.090 HD
ENDBRANCH   5  18
BRANCH   3  22
ATOM     22  C   LIG d   1       3.625  90.165 116.935  0.00  0.00     0.382 C 
ATOM     23  O   LIG d   1       4.133  91.200 117.430  0.00  0.00    -0.241 OA
ATOM     24  O   LIG d   1       4.238  89.545 116.045  0.00  0.00    -0.241 OA
ENDBRANCH   3  22
TORSDOF 7
ENDMDL
MODEL 8
REMARK VINA RESULT:      -4.3      2.592      4.803
REMARK  7 active torsions:
REMARK  status: ('A' for Active; 'I' for Inactive)
REMARK    1  A    between atoms: C_2  and  C_3 
REMARK    2  A    between atoms: C_3  and  O_6 
REMARK    3  A    between atoms: C_3  and  C_4 
REMARK    4  A    between atoms: C_7  and  O_6 
REMARK    5  A    between atoms: C_9  and  C_10 
REMARK    6  A    between atoms: N_15  and  C_14 
REMARK    7  A    between atoms: N_20  and  C_19 
REMARK       I    between atoms: C_22  and  N_20 
ROOT
ATOM      1  C   LIG d   1      -5.270  94.079 119.740  0.00  0.00     0.161 C 
ATOM      2  C   LIG d   1      -6.244  93.559 118.872  0.00  0.00     0.016 C 
ATOM      3  C   LIG d   1      -5.970  92.577 117.893  0.00  0.00     0.038 C 
ATOM      4  C   LIG d   1      -4.725  91.934 117.817  0.00  0.00     0.028 C 
ATOM      5  C   LIG d   1      -3.571  92.783 118.338  0.00  0.00    -0.047 C 
ATOM      6  C   LIG d   1      -3.932  93.310 119.746  0.00  0.00     0.091 C 
ENDROOT
BRANCH   1   7
ATOM      7  O   LIG d   1      -5.803  94.167 121.076  0.00  0.00    -0.368 OA
BRANCH   7   8
ATOM      8  C   LIG d   1      -7.221  94.444 121.180  0.00  0.00     0.119 C 
BRANCH   8   9
ATOM      9  C   LIG d   1      -7.385  95.967 121.344  0.00  0.00     0.028 C 
ATOM     10  C   LIG d   1      -6.645  96.508 122.579  0.00  0.00     0.006 C 
ENDBRANCH   8   9
BRANCH   8  11
ATOM     11  C   LIG d   1      -7.817  93.833 122.452  0.00  0.00     0.028 C 
ATOM     12  C   LIG d   1      -7.052  92.589 122.930  0.00  0.00     0.006 C 
ENDBRANCH   8  11
ENDBRANCH   7   8
ENDBRANCH   1   7
BRANCH   6  13
ATOM     13  N   LIG d   1      -2.893  94.219 120.295  0.00  0.00    -0.311 N 
ATOM     14  C   LIG d   1      -2.365  94.081 121.510  0.00  0.00     0.210 C 
ATOM     15  C   LIG d   1      -1.323  95.139 121.886  0.00  0.00     0.109 C 
ATOM     16  O   LIG d   1      -2.637  93.164 122.299  0.00  0.00    -0.276 OA
ATOM     17  H   LIG d   1      -2.591  94.973 119.709  0.00  0.00     0.149 HD
ENDBRANCH   6  13
BRANCH   5  18
ATOM     18  N   LIG d   1      -2.359  91.943 118.328  0.00  0.00     0.381 N 
ATOM     19  H   LIG d   1      -1.705  92.285 119.003  0.00  0.00    -0.090 HD
ATOM     20  H   LIG d   1      -1.933  91.998 117.420  0.00  0.00    -0.090 HD
ATOM     21  H   LIG d   1      -2.598  90.998 118.535  0.00  0.00    -0.090 HD
ENDBRANCH   5  18
BRANCH   3  22
ATOM     22  C   LIG d   1      -6.935  92.257 116.951  0.00  0.00     0.382 C 
ATOM     23  O   LIG d   1      -7.078  91.067 116.578  0.00  0.00    -0.241 OA
ATOM     24  O   LIG d   1      -7.636  93.149 116.436  0.00  0.00    -0.241 OA
ENDBRANCH   3  22
TORSDOF 7
ENDMDL
MODEL 9
REMARK VINA RESULT:      -4.3      2.748      4.656
REMARK  7 active torsions:
REMARK  status: ('A' for Active; 'I' for Inactive)
REMARK    1  A    between atoms: C_2  and  C_3 
REMARK    2  A    between atoms: C_3  and  O_6 
REMARK    3  A    between atoms: C_3  and  C_4 
REMARK    4  A    between atoms: C_7  and  O_6 
REMARK    5  A    between atoms: C_9  and  C_10 
REMARK    6  A    between atoms: N_15  and  C_14 
REMARK    7  A    between atoms: N_20  and  C_19 
REMARK       I    between atoms: C_22  and  N_20 
ROOT
ATOM      1  C   LIG d   1      -4.535  93.275 119.626  0.00  0.00     0.161 C 
ATOM      2  C   LIG d   1      -5.747  93.462 118.940  0.00  0.00     0.016 C 
ATOM      3  C   LIG d   1      -6.162  92.651 117.859  0.00  0.00     0.038 C 
ATOM      4  C   LIG d   1      -5.460  91.496 117.486  0.00  0.00     0.028 C 
ATOM      5  C   LIG d   1      -3.973  91.557 117.820  0.00  0.00    -0.047 C 
ATOM      6  C   LIG d   1      -3.809  91.952 119.306  0.00  0.00     0.091 C 
ENDROOT
BRANCH   1   7
ATOM      7  O   LIG d   1      -4.754  93.395 121.046  0.00  0.00    -0.368 OA
BRANCH   7   8
ATOM      8  C   LIG d   1      -4.280  94.617 121.663  0.00  0.00     0.119 C 
BRANCH   8   9
ATOM      9  C   LIG d   1      -5.483  95.573 121.781  0.00  0.00     0.028 C 
ATOM     10  C   LIG d   1      -6.723  94.885 122.375  0.00  0.00     0.006 C 
ENDBRANCH   8   9
BRANCH   8  11
ATOM     11  C   LIG d   1      -3.273  95.341 120.763  0.00  0.00     0.028 C 
ATOM     12  C   LIG d   1      -1.840  95.294 121.316  0.00  0.00     0.006 C 
ENDBRANCH   8  11
ENDBRANCH   7   8
ENDBRANCH   1   7
BRANCH   6  13
ATOM     13  N   LIG d   1      -2.383  92.116 119.694  0.00  0.00    -0.311 N 
ATOM     14  C   LIG d   1      -1.797  91.398 120.650  0.00  0.00     0.210 C 
ATOM     15  C   LIG d   1      -0.326  91.740 120.906  0.00  0.00     0.109 C 
ATOM     16  O   LIG d   1      -2.346  90.487 121.289  0.00  0.00    -0.276 OA
ATOM     17  H   LIG d   1      -1.855  92.811 119.205  0.00  0.00     0.149 HD
ENDBRANCH   6  13
BRANCH   5  18
ATOM     18  N   LIG d   1      -3.391  90.238 117.505  0.00  0.00     0.381 N 
ATOM     19  H   LIG d   1      -3.388  90.098 116.514  0.00  0.00    -0.090 HD
ATOM     20  H   LIG d   1      -3.960  89.523 117.923  0.00  0.00    -0.090 HD
ATOM     21  H   LIG d   1      -2.461  90.183 117.858  0.00  0.00    -0.090 HD
ENDBRANCH   5  18
BRANCH   3  22
ATOM     22  C   LIG d   1      -7.272  93.017 117.113  0.00  0.00     0.382 C 
ATOM     23  O   LIG d   1      -8.211  93.649 117.654  0.00  0.00    -0.241 OA
ATOM     24  O   LIG d   1      -7.366  92.685 115.916  0.00  0.00    -0.241 OA
ENDBRANCH   3  22
TORSDOF 7
ENDMDL
