MODEL 1
REMARK VINA RESULT:      -4.9      0.000      0.000
REMARK  7 active torsions:
REMARK  status: ('A' for Active; 'I' for Inactive)
REMARK    1  A    between atoms: C_2  and  C_3 
REMARK    2  A    between atoms: C_3  and  O_6 
REMARK    3  A    between atoms: C_3  and  C_4 
REMARK    4  A    between atoms: C_7  and  O_6 
REMARK    5  A    between atoms: C_9  and  C_10 
REMARK    6  A    between atoms: N_15  and  C_14 
REMARK    7  A    between atoms: N_20  and  C_19 
REMARK       I    between atoms: C_22  and  N_20 
ROOT
ATOM      1  C   LIG d   1      -3.935  90.787 118.866  0.00  0.00     0.161 C 
ATOM      2  C   LIG d   1      -4.721  90.388 117.772  0.00  0.00     0.016 C 
ATOM      3  C   LIG d   1      -6.028  90.873 117.536  0.00  0.00     0.038 C 
ATOM      4  C   LIG d   1      -6.583  91.910 118.299  0.00  0.00     0.028 C 
ATOM      5  C   LIG d   1      -6.025  91.986 119.716  0.00  0.00    -0.047 C 
ATOM      6  C   LIG d   1      -4.481  92.001 119.647  0.00  0.00     0.091 C 
ENDROOT
BRANCH   1   7
ATOM      7  O   LIG d   1      -2.584  91.038 118.431  0.00  0.00    -0.368 OA
BRANCH   7   8
ATOM      8  C   LIG d   1      -1.647  89.945 118.598  0.00  0.00     0.119 C 
BRANCH   8   9
ATOM      9  C   LIG d   1      -0.513  90.443 119.515  0.00  0.00     0.028 C 
ATOM     10  C   LIG d   1      -0.619  89.876 120.940  0.00  0.00     0.006 C 
ENDBRANCH   8   9
BRANCH   8  11
ATOM     11  C   LIG d   1      -0.969  89.585 117.272  0.00  0.00     0.028 C 
ATOM     12  C   LIG d   1      -0.966  88.074 116.995  0.00  0.00     0.006 C 
ENDBRANCH   8  11
ENDBRANCH   7   8
ENDBRANCH   1   7
BRANCH   6  13
ATOM     13  N   LIG d   1      -3.853  91.989 120.994  0.00  0.00    -0.311 N 
ATOM     14  C   LIG d   1      -2.932  92.870 121.381  0.00  0.00     0.210 C 
ATOM     15  C   LIG d   1      -2.400  92.666 122.803  0.00  0.00     0.109 C 
ATOM     16  O   LIG d   1      -2.528  93.819 120.693  0.00  0.00    -0.276 OA
ATOM     17  H   LIG d   1      -4.145  91.271 121.627  0.00  0.00     0.149 HD
ENDBRANCH   6  13
BRANCH   5  18
ATOM     18  N   LIG d   1      -6.587  93.192 120.352  0.00  0.00     0.381 N 
ATOM     19  H   LIG d   1      -6.737  93.022 121.327  0.00  0.00    -0.090 HD
ATOM     20  H   LIG d   1      -7.473  93.401 119.928  0.00  0.00    -0.090 HD
ATOM     21  H   LIG d   1      -5.965  93.962 120.234  0.00  0.00    -0.090 HD
ENDBRANCH   5  18
BRANCH   3  22
ATOM     22  C   LIG d   1      -6.809  90.289 116.549  0.00  0.00     0.382 C 
ATOM     23  O   LIG d   1      -6.446  89.212 116.018  0.00  0.00    -0.241 OA
ATOM     24  O   LIG d   1      -7.848  90.849 116.153  0.00  0.00    -0.241 OA
ENDBRANCH   3  22
TORSDOF 7
ENDMDL
MODEL 2
REMARK VINA RESULT:      -4.5      1.504      1.902
REMARK  7 active torsions:
REMARK  status: ('A' for Active; 'I' for Inactive)
REMARK    1  A    between atoms: C_2  and  C_3 
REMARK    2  A    between atoms: C_3  and  O_6 
REMARK    3  A    between atoms: C_3  and  C_4 
REMARK    4  A    between atoms: C_7  and  O_6 
REMARK    5  A    between atoms: C_9  and  C_10 
REMARK    6  A    between atoms: N_15  and  C_14 
REMARK    7  A    between atoms: N_20  and  C_19 
REMARK       I    between atoms: C_22  and  N_20 
ROOT
ATOM      1  C   LIG d   1      -4.641  91.001 118.863  0.00  0.00     0.161 C 
ATOM      2  C   LIG d   1      -4.947  90.263 117.708  0.00  0.00     0.016 C 
ATOM      3  C   LIG d   1      -6.143  90.429 116.972  0.00  0.00     0.038 C 
ATOM      4  C   LIG d   1      -7.053  91.458 117.258  0.00  0.00     0.028 C 
ATOM      5  C   LIG d   1      -7.029  91.898 118.718  0.00  0.00    -0.047 C 
ATOM      6  C   LIG d   1      -5.570  92.204 119.126  0.00  0.00     0.091 C 
ENDROOT
BRANCH   1   7
ATOM      7  O   LIG d   1      -3.266  91.430 118.819  0.00  0.00    -0.368 OA
BRANCH   7   8
ATOM      8  C   LIG d   1      -2.405  90.920 119.867  0.00  0.00     0.119 C 
BRANCH   8   9
ATOM      9  C   LIG d   1      -1.672  92.123 120.490  0.00  0.00     0.028 C 
ATOM     10  C   LIG d   1      -1.705  93.365 119.583  0.00  0.00     0.006 C 
ENDBRANCH   8   9
BRANCH   8  11
ATOM     11  C   LIG d   1      -1.302  90.024 119.296  0.00  0.00     0.028 C 
ATOM     12  C   LIG d   1      -1.214  90.093 117.763  0.00  0.00     0.006 C 
ENDBRANCH   8  11
ENDBRANCH   7   8
ENDBRANCH   1   7
BRANCH   6  13
ATOM     13  N   LIG d   1      -5.447  92.561 120.564  0.00  0.00    -0.311 N 
ATOM     14  C   LIG d   1      -5.110  93.777 120.991  0.00  0.00     0.210 C 
ATOM     15  C   LIG d   1      -5.021  93.926 122.513  0.00  0.00     0.109 C 
ATOM     16  O   LIG d   1      -4.908  94.755 120.255  0.00  0.00    -0.276 OA
ATOM     17  H   LIG d   1      -5.625  91.836 121.231  0.00  0.00     0.149 HD
ENDBRANCH   6  13
BRANCH   5  18
ATOM     18  N   LIG d   1      -7.923  93.065 118.846  0.00  0.00     0.381 N 
ATOM     19  H   LIG d   1      -8.697  92.969 118.219  0.00  0.00    -0.090 HD
ATOM     20  H   LIG d   1      -7.414  93.893 118.593  0.00  0.00    -0.090 HD
ATOM     21  H   LIG d   1      -8.252  93.141 119.783  0.00  0.00    -0.090 HD
ENDBRANCH   5  18
BRANCH   3  22
ATOM     22  C   LIG d   1      -6.458  89.534 115.961  0.00  0.00     0.382 C 
ATOM     23  O   LIG d   1      -5.557  88.827 115.446  0.00  0.00    -0.241 OA
ATOM     24  O   LIG d   1      -7.622  89.455 115.526  0.00  0.00    -0.241 OA
ENDBRANCH   3  22
TORSDOF 7
ENDMDL
MODEL 3
REMARK VINA RESULT:      -4.5      2.240      4.746
REMARK  7 active torsions:
REMARK  status: ('A' for Active; 'I' for Inactive)
REMARK    1  A    between atoms: C_2  and  C_3 
REMARK    2  A    between atoms: C_3  and  O_6 
REMARK    3  A    between atoms: C_3  and  C_4 
REMARK    4  A    between atoms: C_7  and  O_6 
REMARK    5  A    between atoms: C_9  and  C_10 
REMARK    6  A    between atoms: N_15  and  C_14 
REMARK    7  A    between atoms: N_20  and  C_19 
REMARK       I    between atoms: C_22  and  N_20 
ROOT
ATOM      1  C   LIG d   1      -5.493  92.395 119.516  0.00  0.00     0.161 C 
ATOM      2  C   LIG d   1      -6.300  91.812 118.525  0.00  0.00     0.016 C 
ATOM      3  C   LIG d   1      -5.876  90.737 117.710  0.00  0.00     0.038 C 
ATOM      4  C   LIG d   1      -4.664  90.069 117.936  0.00  0.00     0.028 C 
ATOM      5  C   LIG d   1      -3.603  90.944 118.594  0.00  0.00    -0.047 C 
ATOM      6  C   LIG d   1      -4.210  91.607 119.852  0.00  0.00     0.091 C 
ENDROOT
BRANCH   1   7
ATOM      7  O   LIG d   1      -6.271  92.618 120.710  0.00  0.00    -0.368 OA
BRANCH   7   8
ATOM      8  C   LIG d   1      -6.402  93.996 121.137  0.00  0.00     0.119 C 
BRANCH   8   9
ATOM      9  C   LIG d   1      -7.907  94.304 121.251  0.00  0.00     0.028 C 
ATOM     10  C   LIG d   1      -8.574  94.494 119.879  0.00  0.00     0.006 C 
ENDBRANCH   8   9
BRANCH   8  11
ATOM     11  C   LIG d   1      -5.870  94.962 120.073  0.00  0.00     0.028 C 
ATOM     12  C   LIG d   1      -4.761  95.883 120.606  0.00  0.00     0.006 C 
ENDBRANCH   8  11
ENDBRANCH   7   8
ENDBRANCH   1   7
BRANCH   6  13
ATOM     13  N   LIG d   1      -3.264  92.547 120.510  0.00  0.00    -0.311 N 
ATOM     14  C   LIG d   1      -2.992  92.519 121.813  0.00  0.00     0.210 C 
ATOM     15  C   LIG d   1      -2.004  93.589 122.289  0.00  0.00     0.109 C 
ATOM     16  O   LIG d   1      -3.449  91.690 122.614  0.00  0.00    -0.276 OA
ATOM     17  H   LIG d   1      -2.824  93.232 119.928  0.00  0.00     0.149 HD
ENDBRANCH   6  13
BRANCH   5  18
ATOM     18  N   LIG d   1      -2.442  90.086 118.897  0.00  0.00     0.381 N 
ATOM     19  H   LIG d   1      -1.719  90.631 119.323  0.00  0.00    -0.090 HD
ATOM     20  H   LIG d   1      -2.085  89.707 118.037  0.00  0.00    -0.090 HD
ATOM     21  H   LIG d   1      -2.714  89.347 119.506  0.00  0.00    -0.090 HD
ENDBRANCH   5  18
BRANCH   3  22
ATOM     22  C   LIG d   1      -6.652  90.346 116.630  0.00  0.00     0.382 C 
ATOM     23  O   LIG d   1      -7.582  91.086 116.225  0.00  0.00    -0.241 OA
ATOM     24  O   LIG d   1      -6.464  89.243 116.082  0.00  0.00    -0.241 OA
ENDBRANCH   3  22
TORSDOF 7
ENDMDL
MODEL 4
REMARK VINA RESULT:      -4.3      2.469      4.575
REMARK  7 active torsions:
REMARK  status: ('A' for Active; 'I' for Inactive)
REMARK    1  A    between atoms: C_2  and  C_3 
REMARK    2  A    between atoms: C_3  and  O_6 
REMARK    3  A    between atoms: C_3  and  C_4 
REMARK    4  A    between atoms: C_7  and  O_6 
REMARK    5  A    between atoms: C_9  and  C_10 
REMARK    6  A    between atoms: N_15  and  C_14 
REMARK    7  A    between atoms: N_20  and  C_19 
REMARK       I    between atoms: C_22  and  N_20 
ROOT
ATOM      1  C   LIG d   1      -4.483  92.014 120.638  0.00  0.00     0.161 C 
ATOM      2  C   LIG d   1      -3.670  91.158 119.877  0.00  0.00     0.016 C 
ATOM      3  C   LIG d   1      -4.059  90.624 118.626  0.00  0.00     0.038 C 
ATOM      4  C   LIG d   1      -5.233  91.033 117.978  0.00  0.00     0.028 C 
ATOM      5  C   LIG d   1      -6.320  91.507 118.936  0.00  0.00    -0.047 C 
ATOM      6  C   LIG d   1      -5.720  92.560 119.895  0.00  0.00     0.091 C 
ENDROOT
BRANCH   1   7
ATOM      7  O   LIG d   1      -3.693  93.100 121.161  0.00  0.00    -0.368 OA
BRANCH   7   8
ATOM      8  C   LIG d   1      -3.512  94.238 120.283  0.00  0.00     0.119 C 
BRANCH   8   9
ATOM      9  C   LIG d   1      -2.003  94.373 120.004  0.00  0.00     0.028 C 
ATOM     10  C   LIG d   1      -1.635  93.987 118.562  0.00  0.00     0.006 C 
ENDBRANCH   8   9
BRANCH   8  11
ATOM     11  C   LIG d   1      -3.916  95.544 120.973  0.00  0.00     0.028 C 
ATOM     12  C   LIG d   1      -4.311  96.647 119.978  0.00  0.00     0.006 C 
ENDBRANCH   8  11
ENDBRANCH   7   8
ENDBRANCH   1   7
BRANCH   6  13
ATOM     13  N   LIG d   1      -6.696  93.015 120.920  0.00  0.00    -0.311 N 
ATOM     14  C   LIG d   1      -7.414  94.130 120.805  0.00  0.00     0.210 C 
ATOM     15  C   LIG d   1      -8.346  94.424 121.985  0.00  0.00     0.109 C 
ATOM     16  O   LIG d   1      -7.392  94.887 119.823  0.00  0.00    -0.276 OA
ATOM     17  H   LIG d   1      -6.800  92.443 121.736  0.00  0.00     0.149 HD
ENDBRANCH   6  13
BRANCH   5  18
ATOM     18  N   LIG d   1      -7.433  92.033 118.123  0.00  0.00     0.381 N 
ATOM     19  H   LIG d   1      -7.091  92.326 117.230  0.00  0.00    -0.090 HD
ATOM     20  H   LIG d   1      -7.826  92.833 118.588  0.00  0.00    -0.090 HD
ATOM     21  H   LIG d   1      -8.131  91.332 118.006  0.00  0.00    -0.090 HD
ENDBRANCH   5  18
BRANCH   3  22
ATOM     22  C   LIG d   1      -3.287  89.638 118.031  0.00  0.00     0.382 C 
ATOM     23  O   LIG d   1      -3.812  88.830 117.228  0.00  0.00    -0.241 OA
ATOM     24  O   LIG d   1      -2.081  89.519 118.319  0.00  0.00    -0.241 OA
ENDBRANCH   3  22
TORSDOF 7
ENDMDL
MODEL 5
REMARK VINA RESULT:      -4.3      2.824      5.724
REMARK  7 active torsions:
REMARK  status: ('A' for Active; 'I' for Inactive)
REMARK    1  A    between atoms: C_2  and  C_3 
REMARK    2  A    between atoms: C_3  and  O_6 
REMARK    3  A    between atoms: C_3  and  C_4 
REMARK    4  A    between atoms: C_7  and  O_6 
REMARK    5  A    between atoms: C_9  and  C_10 
REMARK    6  A    between atoms: N_15  and  C_14 
REMARK    7  A    between atoms: N_20  and  C_19 
REMARK       I    between atoms: C_22  and  N_20 
ROOT
ATOM      1  C   LIG d   1      -0.852  90.856 117.834  0.00  0.00     0.161 C 
ATOM      2  C   LIG d   1       0.459  91.339 117.983  0.00  0.00     0.016 C 
ATOM      3  C   LIG d   1       0.761  92.628 118.481  0.00  0.00     0.038 C 
ATOM      4  C   LIG d   1      -0.228  93.470 119.008  0.00  0.00     0.028 C 
ATOM      5  C   LIG d   1      -1.611  93.227 118.413  0.00  0.00    -0.047 C 
ATOM      6  C   LIG d   1      -1.940  91.719 118.508  0.00  0.00     0.091 C 
ENDROOT
BRANCH   1   7
ATOM      7  O   LIG d   1      -0.928  89.496 118.305  0.00  0.00    -0.368 OA
BRANCH   7   8
ATOM      8  C   LIG d   1       0.027  88.569 117.733  0.00  0.00     0.119 C 
BRANCH   8   9
ATOM      9  C   LIG d   1      -0.754  87.604 116.820  0.00  0.00     0.028 C 
ATOM     10  C   LIG d   1      -0.319  86.141 117.004  0.00  0.00     0.006 C 
ENDBRANCH   8   9
BRANCH   8  11
ATOM     11  C   LIG d   1       0.660  87.685 118.811  0.00  0.00     0.028 C 
ATOM     12  C   LIG d   1       0.848  88.418 120.148  0.00  0.00     0.006 C 
ENDBRANCH   8  11
ENDBRANCH   7   8
ENDBRANCH   1   7
BRANCH   6  13
ATOM     13  N   LIG d   1      -3.240  91.381 117.872  0.00  0.00    -0.311 N 
ATOM     14  C   LIG d   1      -4.323  91.027 118.561  0.00  0.00     0.210 C 
ATOM     15  C   LIG d   1      -5.553  90.700 117.709  0.00  0.00     0.109 C 
ATOM     16  O   LIG d   1      -4.390  90.983 119.799  0.00  0.00    -0.276 OA
ATOM     17  H   LIG d   1      -3.283  91.421 116.873  0.00  0.00     0.149 HD
ENDBRANCH   6  13
BRANCH   5  18
ATOM     18  N   LIG d   1      -2.569  94.074 119.149  0.00  0.00     0.381 N 
ATOM     19  H   LIG d   1      -3.344  94.300 118.558  0.00  0.00    -0.090 HD
ATOM     20  H   LIG d   1      -2.111  94.930 119.410  0.00  0.00    -0.090 HD
ATOM     21  H   LIG d   1      -2.889  93.598 119.963  0.00  0.00    -0.090 HD
ENDBRANCH   5  18
BRANCH   3  22
ATOM     22  C   LIG d   1       2.063  93.101 118.417  0.00  0.00     0.382 C 
ATOM     23  O   LIG d   1       2.504  93.847 119.324  0.00  0.00    -0.241 OA
ATOM     24  O   LIG d   1       2.788  92.827 117.441  0.00  0.00    -0.241 OA
ENDBRANCH   3  22
TORSDOF 7
ENDMDL
MODEL 6
REMARK VINA RESULT:      -4.3      1.987      4.799
REMARK  7 active torsions:
REMARK  status: ('A' for Active; 'I' for Inactive)
REMARK    1  A    between atoms: C_2  and  C_3 
REMARK    2  A    between atoms: C_3  and  O_6 
REMARK    3  A    between atoms: C_3  and  C_4 
REMARK    4  A    between atoms: C_7  and  O_6 
REMARK    5  A    between atoms: C_9  and  C_10 
REMARK    6  A    between atoms: N_15  and  C_14 
REMARK    7  A    between atoms: N_20  and  C_19 
REMARK       I    between atoms: C_22  and  N_20 
ROOT
ATOM      1  C   LIG d   1      -4.455  91.831 119.321  0.00  0.00     0.161 C 
ATOM      2  C   LIG d   1      -4.324  92.719 120.401  0.00  0.00     0.016 C 
ATOM      3  C   LIG d   1      -5.355  93.589 120.824  0.00  0.00     0.038 C 
ATOM      4  C   LIG d   1      -6.649  93.521 120.285  0.00  0.00     0.028 C 
ATOM      5  C   LIG d   1      -6.683  92.992 118.855  0.00  0.00    -0.047 C 
ATOM      6  C   LIG d   1      -5.895  91.664 118.793  0.00  0.00     0.091 C 
ENDROOT
BRANCH   1   7
ATOM      7  O   LIG d   1      -3.898  90.549 119.672  0.00  0.00    -0.368 OA
BRANCH   7   8
ATOM      8  C   LIG d   1      -2.608  90.234 119.093  0.00  0.00     0.119 C 
BRANCH   8   9
ATOM      9  C   LIG d   1      -1.559  90.334 120.217  0.00  0.00     0.028 C 
ATOM     10  C   LIG d   1      -2.184  90.206 121.616  0.00  0.00     0.006 C 
ENDBRANCH   8   9
BRANCH   8  11
ATOM     11  C   LIG d   1      -2.192  91.282 118.056  0.00  0.00     0.028 C 
ATOM     12  C   LIG d   1      -0.739  91.751 118.233  0.00  0.00     0.006 C 
ENDBRANCH   8  11
ENDBRANCH   7   8
ENDBRANCH   1   7
BRANCH   6  13
ATOM     13  N   LIG d   1      -5.807  91.121 117.412  0.00  0.00    -0.311 N 
ATOM     14  C   LIG d   1      -6.758  90.370 116.857  0.00  0.00     0.210 C 
ATOM     15  C   LIG d   1      -6.459  89.898 115.431  0.00  0.00     0.109 C 
ATOM     16  O   LIG d   1      -7.834  90.077 117.400  0.00  0.00    -0.276 OA
ATOM     17  H   LIG d   1      -4.981  91.337 116.889  0.00  0.00     0.149 HD
ENDBRANCH   6  13
BRANCH   5  18
ATOM     18  N   LIG d   1      -8.099  92.844 118.469  0.00  0.00     0.381 N 
ATOM     19  H   LIG d   1      -8.316  93.481 117.729  0.00  0.00    -0.090 HD
ATOM     20  H   LIG d   1      -8.677  93.069 119.259  0.00  0.00    -0.090 HD
ATOM     21  H   LIG d   1      -8.275  91.908 118.174  0.00  0.00    -0.090 HD
ENDBRANCH   5  18
BRANCH   3  22
ATOM     22  C   LIG d   1      -5.086  94.568 121.768  0.00  0.00     0.382 C 
ATOM     23  O   LIG d   1      -6.025  95.233 122.268  0.00  0.00    -0.241 OA
ATOM     24  O   LIG d   1      -3.911  94.824 122.095  0.00  0.00    -0.241 OA
ENDBRANCH   3  22
TORSDOF 7
ENDMDL
MODEL 7
REMARK VINA RESULT:      -4.3      3.380      5.396
REMARK  7 active torsions:
REMARK  status: ('A' for Active; 'I' for Inactive)
REMARK    1  A    between atoms: C_2  and  C_3 
REMARK    2  A    between atoms: C_3  and  O_6 
REMARK    3  A    between atoms: C_3  and  C_4 
REMARK    4  A    between atoms: C_7  and  O_6 
REMARK    5  A    between atoms: C_9  and  C_10 
REMARK    6  A    between atoms: N_15  and  C_14 
REMARK    7  A    between atoms: N_20  and  C_19 
REMARK       I    between atoms: C_22  and  N_20 
ROOT
ATOM      1  C   LIG d   1      -1.089  91.507 118.105  0.00  0.00     0.161 C 
ATOM      2  C   LIG d   1      -2.449  91.584 118.446  0.00  0.00     0.016 C 
ATOM      3  C   LIG d   1      -3.364  90.525 118.242  0.00  0.00     0.038 C 
ATOM      4  C   LIG d   1      -2.945  89.255 117.819  0.00  0.00     0.028 C 
ATOM      5  C   LIG d   1      -1.668  89.284 116.986  0.00  0.00    -0.047 C 
ATOM      6  C   LIG d   1      -0.591  90.091 117.746  0.00  0.00     0.091 C 
ENDROOT
BRANCH   1   7
ATOM      7  O   LIG d   1      -0.287  92.066 119.164  0.00  0.00    -0.368 OA
BRANCH   7   8
ATOM      8  C   LIG d   1       0.378  93.319 118.867  0.00  0.00     0.119 C 
BRANCH   8   9
ATOM      9  C   LIG d   1       1.858  93.162 119.266  0.00  0.00     0.028 C 
ATOM     10  C   LIG d   1       2.787  93.050 118.045  0.00  0.00     0.006 C 
ENDBRANCH   8   9
BRANCH   8  11
ATOM     11  C   LIG d   1      -0.159  94.456 119.740  0.00  0.00     0.028 C 
ATOM     12  C   LIG d   1      -1.422  95.110 119.156  0.00  0.00     0.006 C 
ENDBRANCH   8  11
ENDBRANCH   7   8
ENDBRANCH   1   7
BRANCH   6  13
ATOM     13  N   LIG d   1       0.664  90.240 116.963  0.00  0.00    -0.311 N 
ATOM     14  C   LIG d   1       1.703  89.416 117.081  0.00  0.00     0.210 C 
ATOM     15  C   LIG d   1       2.905  89.761 116.196  0.00  0.00     0.109 C 
ATOM     16  O   LIG d   1       1.733  88.414 117.811  0.00  0.00    -0.276 OA
ATOM     17  H   LIG d   1       0.714  91.009 116.324  0.00  0.00     0.149 HD
ENDBRANCH   6  13
BRANCH   5  18
ATOM     18  N   LIG d   1      -1.270  87.887 116.731  0.00  0.00     0.381 N 
ATOM     19  H   LIG d   1      -1.326  87.692 115.751  0.00  0.00    -0.090 HD
ATOM     20  H   LIG d   1      -1.907  87.275 117.210  0.00  0.00    -0.090 HD
ATOM     21  H   LIG d   1      -0.341  87.732 117.055  0.00  0.00    -0.090 HD
ENDBRANCH   5  18
BRANCH   3  22
ATOM     22  C   LIG d   1      -4.721  90.745 118.423  0.00  0.00     0.382 C 
ATOM     23  O   LIG d   1      -5.117  91.479 119.360  0.00  0.00    -0.241 OA
ATOM     24  O   LIG d   1      -5.555  90.182 117.689  0.00  0.00    -0.241 OA
ENDBRANCH   3  22
TORSDOF 7
ENDMDL
MODEL 8
REMARK VINA RESULT:      -4.2      3.118      5.822
REMARK  7 active torsions:
REMARK  status: ('A' for Active; 'I' for Inactive)
REMARK    1  A    between atoms: C_2  and  C_3 
REMARK    2  A    between atoms: C_3  and  O_6 
REMARK    3  A    between atoms: C_3  and  C_4 
REMARK    4  A    between atoms: C_7  and  O_6 
REMARK    5  A    between atoms: C_9  and  C_10 
REMARK    6  A    between atoms: N_15  and  C_14 
REMARK    7  A    between atoms: N_20  and  C_19 
REMARK       I    between atoms: C_22  and  N_20 
ROOT
ATOM      1  C   LIG d   1      -0.739  91.872 118.360  0.00  0.00     0.161 C 
ATOM      2  C   LIG d   1       0.569  91.760 117.859  0.00  0.00     0.016 C 
ATOM      3  C   LIG d   1       1.630  92.603 118.262  0.00  0.00     0.038 C 
ATOM      4  C   LIG d   1       1.489  93.524 119.311  0.00  0.00     0.028 C 
ATOM      5  C   LIG d   1       0.058  94.017 119.495  0.00  0.00    -0.047 C 
ATOM      6  C   LIG d   1      -0.886  92.797 119.586  0.00  0.00     0.091 C 
ENDROOT
BRANCH   1   7
ATOM      7  O   LIG d   1      -1.263  90.562 118.655  0.00  0.00    -0.368 OA
BRANCH   7   8
ATOM      8  C   LIG d   1      -2.357  90.109 117.819  0.00  0.00     0.119 C 
BRANCH   8   9
ATOM      9  C   LIG d   1      -3.571  89.869 118.737  0.00  0.00     0.028 C 
ATOM     10  C   LIG d   1      -4.840  90.574 118.227  0.00  0.00     0.006 C 
ENDBRANCH   8   9
BRANCH   8  11
ATOM     11  C   LIG d   1      -2.050  88.748 117.188  0.00  0.00     0.028 C 
ATOM     12  C   LIG d   1      -0.598  88.298 117.418  0.00  0.00     0.006 C 
ENDBRANCH   8  11
ENDBRANCH   7   8
ENDBRANCH   1   7
BRANCH   6  13
ATOM     13  N   LIG d   1      -2.315  93.192 119.683  0.00  0.00    -0.311 N 
ATOM     14  C   LIG d   1      -3.074  92.942 120.748  0.00  0.00     0.210 C 
ATOM     15  C   LIG d   1      -4.526  93.417 120.634  0.00  0.00     0.109 C 
ATOM     16  O   LIG d   1      -2.675  92.401 121.790  0.00  0.00    -0.276 OA
ATOM     17  H   LIG d   1      -2.713  93.663 118.894  0.00  0.00     0.149 HD
ENDBRANCH   6  13
BRANCH   5  18
ATOM     18  N   LIG d   1       0.030  94.861 120.705  0.00  0.00     0.381 N 
ATOM     19  H   LIG d   1       0.230  94.303 121.511  0.00  0.00    -0.090 HD
ATOM     20  H   LIG d   1      -0.891  95.249 120.810  0.00  0.00    -0.090 HD
ATOM     21  H   LIG d   1       0.700  95.594 120.625  0.00  0.00    -0.090 HD
ENDBRANCH   5  18
BRANCH   3  22
ATOM     22  C   LIG d   1       2.839  92.557 117.584  0.00  0.00     0.382 C 
ATOM     23  O   LIG d   1       3.603  93.553 117.595  0.00  0.00    -0.241 OA
ATOM     24  O   LIG d   1       3.155  91.549 116.924  0.00  0.00    -0.241 OA
ENDBRANCH   3  22
TORSDOF 7
ENDMDL
MODEL 9
REMARK VINA RESULT:      -4.1      3.493      5.849
REMARK  7 active torsions:
REMARK  status: ('A' for Active; 'I' for Inactive)
REMARK    1  A    between atoms: C_2  and  C_3 
REMARK    2  A    between atoms: C_3  and  O_6 
REMARK    3  A    between atoms: C_3  and  C_4 
REMARK    4  A    between atoms: C_7  and  O_6 
REMARK    5  A    between atoms: C_9  and  C_10 
REMARK    6  A    between atoms: N_15  and  C_14 
REMARK    7  A    between atoms: N_20  and  C_19 
REMARK       I    between atoms: C_22  and  N_20 
ROOT
ATOM      1  C   LIG d   1      -0.168  88.986 117.404  0.00  0.00     0.161 C 
ATOM      2  C   LIG d   1      -1.542  89.174 117.629  0.00  0.00     0.016 C 
ATOM      3  C   LIG d   1      -2.106  90.416 118.001  0.00  0.00     0.038 C 
ATOM      4  C   LIG d   1      -1.349  91.597 118.025  0.00  0.00     0.028 C 
ATOM      5  C   LIG d   1       0.133  91.361 118.296  0.00  0.00    -0.047 C 
ATOM      6  C   LIG d   1       0.657  90.287 117.317  0.00  0.00     0.091 C 
ENDROOT
BRANCH   1   7
ATOM      7  O   LIG d   1       0.028  88.188 116.219  0.00  0.00    -0.368 OA
BRANCH   7   8
ATOM      8  C   LIG d   1       0.701  86.919 116.409  0.00  0.00     0.119 C 
BRANCH   8   9
ATOM      9  C   LIG d   1      -0.089  85.854 115.623  0.00  0.00     0.028 C 
ATOM     10  C   LIG d   1      -1.524  85.682 116.148  0.00  0.00     0.006 C 
ENDBRANCH   8   9
BRANCH   8  11
ATOM     11  C   LIG d   1       0.641  86.470 117.873  0.00  0.00     0.028 C 
ATOM     12  C   LIG d   1       2.032  86.236 118.481  0.00  0.00     0.006 C 
ENDBRANCH   8  11
ENDBRANCH   7   8
ENDBRANCH   1   7
BRANCH   6  13
ATOM     13  N   LIG d   1       2.079  89.935 117.570  0.00  0.00    -0.311 N 
ATOM     14  C   LIG d   1       3.014  89.935 116.621  0.00  0.00     0.210 C 
ATOM     15  C   LIG d   1       4.412  89.522 117.091  0.00  0.00     0.109 C 
ATOM     16  O   LIG d   1       2.825  90.268 115.441  0.00  0.00    -0.276 OA
ATOM     17  H   LIG d   1       2.327  89.682 118.506  0.00  0.00     0.149 HD
ENDBRANCH   6  13
BRANCH   5  18
ATOM     18  N   LIG d   1       0.823  92.657 118.157  0.00  0.00     0.381 N 
ATOM     19  H   LIG d   1       1.464  92.783 118.914  0.00  0.00    -0.090 HD
ATOM     20  H   LIG d   1       0.141  93.394 118.194  0.00  0.00    -0.090 HD
ATOM     21  H   LIG d   1       1.312  92.692 117.289  0.00  0.00    -0.090 HD
ENDBRANCH   5  18
BRANCH   3  22
ATOM     22  C   LIG d   1      -3.435  90.477 118.392  0.00  0.00     0.382 C 
ATOM     23  O   LIG d   1      -3.868  91.496 118.982  0.00  0.00    -0.241 OA
ATOM     24  O   LIG d   1      -4.195  89.509 118.202  0.00  0.00    -0.241 OA
ENDBRANCH   3  22
TORSDOF 7
ENDMDL
