MODEL 1
REMARK VINA RESULT:      -5.1      0.000      0.000
REMARK  7 active torsions:
REMARK  status: ('A' for Active; 'I' for Inactive)
REMARK    1  A    between atoms: C_2  and  C_3 
REMARK    2  A    between atoms: C_3  and  O_6 
REMARK    3  A    between atoms: C_3  and  C_4 
REMARK    4  A    between atoms: C_7  and  O_6 
REMARK    5  A    between atoms: C_9  and  C_10 
REMARK    6  A    between atoms: N_15  and  C_14 
REMARK    7  A    between atoms: N_20  and  C_19 
REMARK       I    between atoms: C_22  and  N_20 
ROOT
ATOM      1  C   LIG d   1      -5.968  92.657 119.158  0.00  0.00     0.161 C 
ATOM      2  C   LIG d   1      -4.864  93.257 119.787  0.00  0.00     0.016 C 
ATOM      3  C   LIG d   1      -3.523  92.905 119.508  0.00  0.00     0.038 C 
ATOM      4  C   LIG d   1      -3.188  92.029 118.465  0.00  0.00     0.028 C 
ATOM      5  C   LIG d   1      -4.287  91.021 118.144  0.00  0.00    -0.047 C 
ATOM      6  C   LIG d   1      -5.618  91.779 117.939  0.00  0.00     0.091 C 
ENDROOT
BRANCH   1   7
ATOM      7  O   LIG d   1      -6.929  93.666 118.791  0.00  0.00    -0.368 OA
BRANCH   7   8
ATOM      8  C   LIG d   1      -7.237  94.653 119.806  0.00  0.00     0.119 C 
BRANCH   8   9
ATOM      9  C   LIG d   1      -8.486  94.163 120.564  0.00  0.00     0.028 C 
ATOM     10  C   LIG d   1      -8.457  94.546 122.053  0.00  0.00     0.006 C 
ENDBRANCH   8   9
BRANCH   8  11
ATOM     11  C   LIG d   1      -7.642  95.990 119.178  0.00  0.00     0.028 C 
ATOM     12  C   LIG d   1      -9.077  95.980 118.628  0.00  0.00     0.006 C 
ENDBRANCH   8  11
ENDBRANCH   7   8
ENDBRANCH   1   7
BRANCH   6  13
ATOM     13  N   LIG d   1      -6.763  90.860 117.704  0.00  0.00    -0.311 N 
ATOM     14  C   LIG d   1      -7.148  90.464 116.492  0.00  0.00     0.210 C 
ATOM     15  C   LIG d   1      -8.363  89.532 116.472  0.00  0.00     0.109 C 
ATOM     16  O   LIG d   1      -6.579  90.770 115.433  0.00  0.00    -0.276 OA
ATOM     17  H   LIG d   1      -7.262  90.538 118.509  0.00  0.00     0.149 HD
ENDBRANCH   6  13
BRANCH   5  18
ATOM     18  N   LIG d   1      -3.862  90.264 116.952  0.00  0.00     0.381 N 
ATOM     19  H   LIG d   1      -4.387  90.565 116.155  0.00  0.00    -0.090 HD
ATOM     20  H   LIG d   1      -4.049  89.288 117.103  0.00  0.00    -0.090 HD
ATOM     21  H   LIG d   1      -2.889  90.402 116.789  0.00  0.00    -0.090 HD
ENDBRANCH   5  18
BRANCH   3  22
ATOM     22  C   LIG d   1      -2.502  93.402 120.304  0.00  0.00     0.382 C 
ATOM     23  O   LIG d   1      -2.435  94.632 120.542  0.00  0.00    -0.241 OA
ATOM     24  O   LIG d   1      -1.623  92.642 120.751  0.00  0.00    -0.241 OA
ENDBRANCH   3  22
TORSDOF 7
ENDMDL
MODEL 2
REMARK VINA RESULT:      -4.8      1.744      4.646
REMARK  7 active torsions:
REMARK  status: ('A' for Active; 'I' for Inactive)
REMARK    1  A    between atoms: C_2  and  C_3 
REMARK    2  A    between atoms: C_3  and  O_6 
REMARK    3  A    between atoms: C_3  and  C_4 
REMARK    4  A    between atoms: C_7  and  O_6 
REMARK    5  A    between atoms: C_9  and  C_10 
REMARK    6  A    between atoms: N_15  and  C_14 
REMARK    7  A    between atoms: N_20  and  C_19 
REMARK       I    between atoms: C_22  and  N_20 
ROOT
ATOM      1  C   LIG d   1      -5.284  92.571 118.793  0.00  0.00     0.161 C 
ATOM      2  C   LIG d   1      -6.318  91.984 118.044  0.00  0.00     0.016 C 
ATOM      3  C   LIG d   1      -6.108  90.944 117.110  0.00  0.00     0.038 C 
ATOM      4  C   LIG d   1      -4.863  90.313 116.970  0.00  0.00     0.028 C 
ATOM      5  C   LIG d   1      -3.685  91.208 117.338  0.00  0.00    -0.047 C 
ATOM      6  C   LIG d   1      -3.937  91.820 118.735  0.00  0.00     0.091 C 
ENDROOT
BRANCH   1   7
ATOM      7  O   LIG d   1      -5.706  92.739 120.160  0.00  0.00    -0.368 OA
BRANCH   7   8
ATOM      8  C   LIG d   1      -6.068  94.085 120.555  0.00  0.00     0.119 C 
BRANCH   8   9
ATOM      9  C   LIG d   1      -7.603  94.195 120.472  0.00  0.00     0.028 C 
ATOM     10  C   LIG d   1      -8.276  94.070 121.849  0.00  0.00     0.006 C 
ENDBRANCH   8   9
BRANCH   8  11
ATOM     11  C   LIG d   1      -5.533  95.120 119.561  0.00  0.00     0.028 C 
ATOM     12  C   LIG d   1      -6.652  95.906 118.859  0.00  0.00     0.006 C 
ENDBRANCH   8  11
ENDBRANCH   7   8
ENDBRANCH   1   7
BRANCH   6  13
ATOM     13  N   LIG d   1      -2.872  92.776 119.136  0.00  0.00    -0.311 N 
ATOM     14  C   LIG d   1      -1.810  92.429 119.860  0.00  0.00     0.210 C 
ATOM     15  C   LIG d   1      -0.843  93.573 120.180  0.00  0.00     0.109 C 
ATOM     16  O   LIG d   1      -1.560  91.275 120.241  0.00  0.00    -0.276 OA
ATOM     17  H   LIG d   1      -2.979  93.728 118.843  0.00  0.00     0.149 HD
ENDBRANCH   6  13
BRANCH   5  18
ATOM     18  N   LIG d   1      -2.463  90.384 117.280  0.00  0.00     0.381 N 
ATOM     19  H   LIG d   1      -1.801  90.712 117.955  0.00  0.00    -0.090 HD
ATOM     20  H   LIG d   1      -2.054  90.473 116.367  0.00  0.00    -0.090 HD
ATOM     21  H   LIG d   1      -2.686  89.430 117.461  0.00  0.00    -0.090 HD
ENDBRANCH   5  18
BRANCH   3  22
ATOM     22  C   LIG d   1      -7.142  90.552 116.274  0.00  0.00     0.382 C 
ATOM     23  O   LIG d   1      -7.744  91.405 115.579  0.00  0.00    -0.241 OA
ATOM     24  O   LIG d   1      -7.511  89.362 116.240  0.00  0.00    -0.241 OA
ENDBRANCH   3  22
TORSDOF 7
ENDMDL
MODEL 3
REMARK VINA RESULT:      -4.8      2.336      4.969
REMARK  7 active torsions:
REMARK  status: ('A' for Active; 'I' for Inactive)
REMARK    1  A    between atoms: C_2  and  C_3 
REMARK    2  A    between atoms: C_3  and  O_6 
REMARK    3  A    between atoms: C_3  and  C_4 
REMARK    4  A    between atoms: C_7  and  O_6 
REMARK    5  A    between atoms: C_9  and  C_10 
REMARK    6  A    between atoms: N_15  and  C_14 
REMARK    7  A    between atoms: N_20  and  C_19 
REMARK       I    between atoms: C_22  and  N_20 
ROOT
ATOM      1  C   LIG d   1      -4.313  90.947 117.704  0.00  0.00     0.161 C 
ATOM      2  C   LIG d   1      -3.264  91.758 118.169  0.00  0.00     0.016 C 
ATOM      3  C   LIG d   1      -3.465  92.905 118.971  0.00  0.00     0.038 C 
ATOM      4  C   LIG d   1      -4.725  93.236 119.490  0.00  0.00     0.028 C 
ATOM      5  C   LIG d   1      -5.884  92.735 118.634  0.00  0.00    -0.047 C 
ATOM      6  C   LIG d   1      -5.685  91.228 118.352  0.00  0.00     0.091 C 
ENDROOT
BRANCH   1   7
ATOM      7  O   LIG d   1      -3.961  89.557 117.858  0.00  0.00    -0.368 OA
BRANCH   7   8
ATOM      8  C   LIG d   1      -2.798  89.281 118.675  0.00  0.00     0.119 C 
BRANCH   8   9
ATOM      9  C   LIG d   1      -2.009  88.148 117.991  0.00  0.00     0.028 C 
ATOM     10  C   LIG d   1      -1.560  87.063 118.984  0.00  0.00     0.006 C 
ENDBRANCH   8   9
BRANCH   8  11
ATOM     11  C   LIG d   1      -3.198  88.726 120.046  0.00  0.00     0.028 C 
ATOM     12  C   LIG d   1      -3.094  89.773 121.166  0.00  0.00     0.006 C 
ENDBRANCH   8  11
ENDBRANCH   7   8
ENDBRANCH   1   7
BRANCH   6  13
ATOM     13  N   LIG d   1      -6.730  90.677 117.451  0.00  0.00    -0.311 N 
ATOM     14  C   LIG d   1      -6.864  91.040 116.176  0.00  0.00     0.210 C 
ATOM     15  C   LIG d   1      -8.020  90.365 115.430  0.00  0.00     0.109 C 
ATOM     16  O   LIG d   1      -6.117  91.833 115.584  0.00  0.00    -0.276 OA
ATOM     17  H   LIG d   1      -7.360  90.004 117.841  0.00  0.00     0.149 HD
ENDBRANCH   6  13
BRANCH   5  18
ATOM     18  N   LIG d   1      -7.134  93.027 119.360  0.00  0.00     0.381 N 
ATOM     19  H   LIG d   1      -7.919  92.863 118.763  0.00  0.00    -0.090 HD
ATOM     20  H   LIG d   1      -7.136  93.996 119.626  0.00  0.00    -0.090 HD
ATOM     21  H   LIG d   1      -7.199  92.452 120.172  0.00  0.00    -0.090 HD
ENDBRANCH   5  18
BRANCH   3  22
ATOM     22  C   LIG d   1      -2.402  93.758 119.227  0.00  0.00     0.382 C 
ATOM     23  O   LIG d   1      -1.487  93.893 118.379  0.00  0.00    -0.241 OA
ATOM     24  O   LIG d   1      -2.324  94.361 120.314  0.00  0.00    -0.241 OA
ENDBRANCH   3  22
TORSDOF 7
ENDMDL
MODEL 4
REMARK VINA RESULT:      -4.8      2.563      6.000
REMARK  7 active torsions:
REMARK  status: ('A' for Active; 'I' for Inactive)
REMARK    1  A    between atoms: C_2  and  C_3 
REMARK    2  A    between atoms: C_3  and  O_6 
REMARK    3  A    between atoms: C_3  and  C_4 
REMARK    4  A    between atoms: C_7  and  O_6 
REMARK    5  A    between atoms: C_9  and  C_10 
REMARK    6  A    between atoms: N_15  and  C_14 
REMARK    7  A    between atoms: N_20  and  C_19 
REMARK       I    between atoms: C_22  and  N_20 
ROOT
ATOM      1  C   LIG d   1      -5.801  93.603 120.212  0.00  0.00     0.161 C 
ATOM      2  C   LIG d   1      -7.136  93.909 119.899  0.00  0.00     0.016 C 
ATOM      3  C   LIG d   1      -7.528  95.095 119.237  0.00  0.00     0.038 C 
ATOM      4  C   LIG d   1      -6.590  95.991 118.704  0.00  0.00     0.028 C 
ATOM      5  C   LIG d   1      -5.253  95.976 119.437  0.00  0.00    -0.047 C 
ATOM      6  C   LIG d   1      -4.754  94.516 119.540  0.00  0.00     0.091 C 
ENDROOT
BRANCH   1   7
ATOM      7  O   LIG d   1      -5.531  92.221 119.905  0.00  0.00    -0.368 OA
BRANCH   7   8
ATOM      8  C   LIG d   1      -5.093  91.943 118.552  0.00  0.00     0.119 C 
BRANCH   8   9
ATOM      9  C   LIG d   1      -6.246  91.215 117.833  0.00  0.00     0.028 C 
ATOM     10  C   LIG d   1      -6.390  91.651 116.365  0.00  0.00     0.006 C 
ENDBRANCH   8   9
BRANCH   8  11
ATOM     11  C   LIG d   1      -3.920  90.958 118.537  0.00  0.00     0.028 C 
ATOM     12  C   LIG d   1      -3.719  90.251 119.887  0.00  0.00     0.006 C 
ENDBRANCH   8  11
ENDBRANCH   7   8
ENDBRANCH   1   7
BRANCH   6  13
ATOM     13  N   LIG d   1      -3.493  94.402 120.317  0.00  0.00    -0.311 N 
ATOM     14  C   LIG d   1      -2.288  94.329 119.753  0.00  0.00     0.210 C 
ATOM     15  C   LIG d   1      -1.121  94.195 120.737  0.00  0.00     0.109 C 
ATOM     16  O   LIG d   1      -2.073  94.394 118.534  0.00  0.00    -0.276 OA
ATOM     17  H   LIG d   1      -3.572  94.374 121.315  0.00  0.00     0.149 HD
ENDBRANCH   6  13
BRANCH   5  18
ATOM     18  N   LIG d   1      -4.327  96.852 118.694  0.00  0.00     0.381 N 
ATOM     19  H   LIG d   1      -4.813  97.668 118.378  0.00  0.00    -0.090 HD
ATOM     20  H   LIG d   1      -3.986  96.357 117.890  0.00  0.00    -0.090 HD
ATOM     21  H   LIG d   1      -3.565  97.116 119.279  0.00  0.00    -0.090 HD
ENDBRANCH   5  18
BRANCH   3  22
ATOM     22  C   LIG d   1      -8.874  95.413 119.137  0.00  0.00     0.382 C 
ATOM     23  O   LIG d   1      -9.724  94.755 119.784  0.00  0.00    -0.241 OA
ATOM     24  O   LIG d   1      -9.253  96.321 118.373  0.00  0.00    -0.241 OA
ENDBRANCH   3  22
TORSDOF 7
ENDMDL
MODEL 5
REMARK VINA RESULT:      -4.6      2.677      6.740
REMARK  7 active torsions:
REMARK  status: ('A' for Active; 'I' for Inactive)
REMARK    1  A    between atoms: C_2  and  C_3 
REMARK    2  A    between atoms: C_3  and  O_6 
REMARK    3  A    between atoms: C_3  and  C_4 
REMARK    4  A    between atoms: C_7  and  O_6 
REMARK    5  A    between atoms: C_9  and  C_10 
REMARK    6  A    between atoms: N_15  and  C_14 
REMARK    7  A    between atoms: N_20  and  C_19 
REMARK       I    between atoms: C_22  and  N_20 
ROOT
ATOM      1  C   LIG d   1      -3.958  90.706 118.210  0.00  0.00     0.161 C 
ATOM      2  C   LIG d   1      -4.926  90.336 117.261  0.00  0.00     0.016 C 
ATOM      3  C   LIG d   1      -6.057  91.127 116.954  0.00  0.00     0.038 C 
ATOM      4  C   LIG d   1      -6.218  92.422 117.469  0.00  0.00     0.028 C 
ATOM      5  C   LIG d   1      -5.529  92.629 118.813  0.00  0.00    -0.047 C 
ATOM      6  C   LIG d   1      -4.059  92.166 118.700  0.00  0.00     0.091 C 
ENDROOT
BRANCH   1   7
ATOM      7  O   LIG d   1      -2.640  90.441 117.692  0.00  0.00    -0.368 OA
BRANCH   7   8
ATOM      8  C   LIG d   1      -2.115  89.112 117.932  0.00  0.00     0.119 C 
BRANCH   8   9
ATOM      9  C   LIG d   1      -2.019  88.922 119.458  0.00  0.00     0.028 C 
ATOM     10  C   LIG d   1      -2.812  87.699 119.948  0.00  0.00     0.006 C 
ENDBRANCH   8   9
BRANCH   8  11
ATOM     11  C   LIG d   1      -0.680  88.978 117.416  0.00  0.00     0.028 C 
ATOM     12  C   LIG d   1      -0.052  90.330 117.041  0.00  0.00     0.006 C 
ENDBRANCH   8  11
ENDBRANCH   7   8
ENDBRANCH   1   7
BRANCH   6  13
ATOM     13  N   LIG d   1      -3.335  92.256 119.995  0.00  0.00    -0.311 N 
ATOM     14  C   LIG d   1      -2.597  93.306 120.350  0.00  0.00     0.210 C 
ATOM     15  C   LIG d   1      -1.919  93.187 121.719  0.00  0.00     0.109 C 
ATOM     16  O   LIG d   1      -2.464  94.339 119.676  0.00  0.00    -0.276 OA
ATOM     17  H   LIG d   1      -3.413  91.475 120.617  0.00  0.00     0.149 HD
ENDBRANCH   6  13
BRANCH   5  18
ATOM     18  N   LIG d   1      -5.660  94.055 119.166  0.00  0.00     0.381 N 
ATOM     19  H   LIG d   1      -5.927  94.144 120.126  0.00  0.00    -0.090 HD
ATOM     20  H   LIG d   1      -6.382  94.465 118.599  0.00  0.00    -0.090 HD
ATOM     21  H   LIG d   1      -4.797  94.527 119.008  0.00  0.00    -0.090 HD
ENDBRANCH   5  18
BRANCH   3  22
ATOM     22  C   LIG d   1      -7.062  90.606 116.153  0.00  0.00     0.382 C 
ATOM     23  O   LIG d   1      -7.746  91.370 115.430  0.00  0.00    -0.241 OA
ATOM     24  O   LIG d   1      -7.323  89.388 116.178  0.00  0.00    -0.241 OA
ENDBRANCH   3  22
TORSDOF 7
ENDMDL
MODEL 6
REMARK VINA RESULT:      -4.6      2.218      4.274
REMARK  7 active torsions:
REMARK  status: ('A' for Active; 'I' for Inactive)
REMARK    1  A    between atoms: C_2  and  C_3 
REMARK    2  A    between atoms: C_3  and  O_6 
REMARK    3  A    between atoms: C_3  and  C_4 
REMARK    4  A    between atoms: C_7  and  O_6 
REMARK    5  A    between atoms: C_9  and  C_10 
REMARK    6  A    between atoms: N_15  and  C_14 
REMARK    7  A    between atoms: N_20  and  C_19 
REMARK       I    between atoms: C_22  and  N_20 
ROOT
ATOM      1  C   LIG d   1      -5.135  92.335 120.141  0.00  0.00     0.161 C 
ATOM      2  C   LIG d   1      -4.154  91.394 119.784  0.00  0.00     0.016 C 
ATOM      3  C   LIG d   1      -4.033  90.852 118.484  0.00  0.00     0.038 C 
ATOM      4  C   LIG d   1      -4.794  91.330 117.407  0.00  0.00     0.028 C 
ATOM      5  C   LIG d   1      -6.137  91.916 117.828  0.00  0.00    -0.047 C 
ATOM      6  C   LIG d   1      -5.903  92.950 118.953  0.00  0.00     0.091 C 
ENDROOT
BRANCH   1   7
ATOM      7  O   LIG d   1      -4.546  93.373 120.948  0.00  0.00    -0.368 OA
BRANCH   7   8
ATOM      8  C   LIG d   1      -3.897  94.450 120.228  0.00  0.00     0.119 C 
BRANCH   8   9
ATOM      9  C   LIG d   1      -2.376  94.277 120.409  0.00  0.00     0.028 C 
ATOM     10  C   LIG d   1      -1.999  93.861 121.841  0.00  0.00     0.006 C 
ENDBRANCH   8   9
BRANCH   8  11
ATOM     11  C   LIG d   1      -4.227  95.812 120.846  0.00  0.00     0.028 C 
ATOM     12  C   LIG d   1      -5.285  95.721 121.957  0.00  0.00     0.006 C 
ENDBRANCH   8  11
ENDBRANCH   7   8
ENDBRANCH   1   7
BRANCH   6  13
ATOM     13  N   LIG d   1      -7.174  93.511 119.481  0.00  0.00    -0.311 N 
ATOM     14  C   LIG d   1      -7.571  94.763 119.261  0.00  0.00     0.210 C 
ATOM     15  C   LIG d   1      -8.904  95.144 119.913  0.00  0.00     0.109 C 
ATOM     16  O   LIG d   1      -6.961  95.585 118.560  0.00  0.00    -0.276 OA
ATOM     17  H   LIG d   1      -7.746  92.903 120.034  0.00  0.00     0.149 HD
ENDBRANCH   6  13
BRANCH   5  18
ATOM     18  N   LIG d   1      -6.765  92.500 116.627  0.00  0.00     0.381 N 
ATOM     19  H   LIG d   1      -7.638  92.046 116.447  0.00  0.00    -0.090 HD
ATOM     20  H   LIG d   1      -6.161  92.348 115.838  0.00  0.00    -0.090 HD
ATOM     21  H   LIG d   1      -6.911  93.476 116.759  0.00  0.00    -0.090 HD
ENDBRANCH   5  18
BRANCH   3  22
ATOM     22  C   LIG d   1      -3.168  89.791 118.260  0.00  0.00     0.382 C 
ATOM     23  O   LIG d   1      -3.424  88.662 118.742  0.00  0.00    -0.241 OA
ATOM     24  O   LIG d   1      -2.113  89.960 117.619  0.00  0.00    -0.241 OA
ENDBRANCH   3  22
TORSDOF 7
ENDMDL
MODEL 7
REMARK VINA RESULT:      -4.5      2.582      6.275
REMARK  7 active torsions:
REMARK  status: ('A' for Active; 'I' for Inactive)
REMARK    1  A    between atoms: C_2  and  C_3 
REMARK    2  A    between atoms: C_3  and  O_6 
REMARK    3  A    between atoms: C_3  and  C_4 
REMARK    4  A    between atoms: C_7  and  O_6 
REMARK    5  A    between atoms: C_9  and  C_10 
REMARK    6  A    between atoms: N_15  and  C_14 
REMARK    7  A    between atoms: N_20  and  C_19 
REMARK       I    between atoms: C_22  and  N_20 
ROOT
ATOM      1  C   LIG d   1      -4.632  91.423 119.262  0.00  0.00     0.161 C 
ATOM      2  C   LIG d   1      -5.198  90.661 118.226  0.00  0.00     0.016 C 
ATOM      3  C   LIG d   1      -6.150  91.174 117.314  0.00  0.00     0.038 C 
ATOM      4  C   LIG d   1      -6.489  92.534 117.283  0.00  0.00     0.028 C 
ATOM      5  C   LIG d   1      -6.324  93.231 118.630  0.00  0.00    -0.047 C 
ATOM      6  C   LIG d   1      -4.907  92.939 119.175  0.00  0.00     0.091 C 
ENDROOT
BRANCH   1   7
ATOM      7  O   LIG d   1      -3.214  91.174 119.333  0.00  0.00    -0.368 OA
BRANCH   7   8
ATOM      8  C   LIG d   1      -2.445  91.530 118.158  0.00  0.00     0.119 C 
BRANCH   8   9
ATOM      9  C   LIG d   1      -1.534  90.334 117.821  0.00  0.00     0.028 C 
ATOM     10  C   LIG d   1      -1.807  89.117 118.720  0.00  0.00     0.006 C 
ENDBRANCH   8   9
BRANCH   8  11
ATOM     11  C   LIG d   1      -1.494  92.696 118.446  0.00  0.00     0.028 C 
ATOM     12  C   LIG d   1      -1.032  92.739 119.911  0.00  0.00     0.006 C 
ENDBRANCH   8  11
ENDBRANCH   7   8
ENDBRANCH   1   7
BRANCH   6  13
ATOM     13  N   LIG d   1      -4.691  93.513 120.528  0.00  0.00    -0.311 N 
ATOM     14  C   LIG d   1      -4.103  94.689 120.740  0.00  0.00     0.210 C 
ATOM     15  C   LIG d   1      -3.961  95.086 122.213  0.00  0.00     0.109 C 
ATOM     16  O   LIG d   1      -3.714  95.457 119.847  0.00  0.00    -0.276 OA
ATOM     17  H   LIG d   1      -5.005  92.971 121.310  0.00  0.00     0.149 HD
ENDBRANCH   6  13
BRANCH   5  18
ATOM     18  N   LIG d   1      -6.578  94.669 118.422  0.00  0.00     0.381 N 
ATOM     19  H   LIG d   1      -5.710  95.155 118.320  0.00  0.00    -0.090 HD
ATOM     20  H   LIG d   1      -7.052  95.035 119.230  0.00  0.00    -0.090 HD
ATOM     21  H   LIG d   1      -7.140  94.802 117.610  0.00  0.00    -0.090 HD
ENDBRANCH   5  18
BRANCH   3  22
ATOM     22  C   LIG d   1      -6.802  90.312 116.446  0.00  0.00     0.382 C 
ATOM     23  O   LIG d   1      -6.138  89.569 115.683  0.00  0.00    -0.241 OA
ATOM     24  O   LIG d   1      -8.046  90.301 116.383  0.00  0.00    -0.241 OA
ENDBRANCH   3  22
TORSDOF 7
ENDMDL
MODEL 8
REMARK VINA RESULT:      -4.3      3.673      6.254
REMARK  7 active torsions:
REMARK  status: ('A' for Active; 'I' for Inactive)
REMARK    1  A    between atoms: C_2  and  C_3 
REMARK    2  A    between atoms: C_3  and  O_6 
REMARK    3  A    between atoms: C_3  and  C_4 
REMARK    4  A    between atoms: C_7  and  O_6 
REMARK    5  A    between atoms: C_9  and  C_10 
REMARK    6  A    between atoms: N_15  and  C_14 
REMARK    7  A    between atoms: N_20  and  C_19 
REMARK       I    between atoms: C_22  and  N_20 
ROOT
ATOM      1  C   LIG d   1      -0.980  91.749 118.482  0.00  0.00     0.161 C 
ATOM      2  C   LIG d   1       0.050  92.393 119.188  0.00  0.00     0.016 C 
ATOM      3  C   LIG d   1      -0.113  93.639 119.837  0.00  0.00     0.038 C 
ATOM      4  C   LIG d   1      -1.367  94.257 119.952  0.00  0.00     0.028 C 
ATOM      5  C   LIG d   1      -2.327  93.893 118.824  0.00  0.00    -0.047 C 
ATOM      6  C   LIG d   1      -2.384  92.355 118.690  0.00  0.00     0.091 C 
ENDROOT
BRANCH   1   7
ATOM      7  O   LIG d   1      -0.987  90.344 118.803  0.00  0.00    -0.368 OA
BRANCH   7   8
ATOM      8  C   LIG d   1      -0.917  89.433 117.678  0.00  0.00     0.119 C 
BRANCH   8   9
ATOM      9  C   LIG d   1      -2.029  88.383 117.862  0.00  0.00     0.028 C 
ATOM     10  C   LIG d   1      -2.741  88.514 119.219  0.00  0.00     0.006 C 
ENDBRANCH   8   9
BRANCH   8  11
ATOM     11  C   LIG d   1       0.394  88.641 117.684  0.00  0.00     0.028 C 
ATOM     12  C   LIG d   1       0.218  87.195 117.193  0.00  0.00     0.006 C 
ENDBRANCH   8  11
ENDBRANCH   7   8
ENDBRANCH   1   7
BRANCH   6  13
ATOM     13  N   LIG d   1      -3.236  91.915 117.554  0.00  0.00    -0.311 N 
ATOM     14  C   LIG d   1      -4.485  91.479 117.701  0.00  0.00     0.210 C 
ATOM     15  C   LIG d   1      -5.180  91.056 116.403  0.00  0.00     0.109 C 
ATOM     16  O   LIG d   1      -5.095  91.431 118.780  0.00  0.00    -0.276 OA
ATOM     17  H   LIG d   1      -2.830  91.951 116.640  0.00  0.00     0.149 HD
ENDBRANCH   6  13
BRANCH   5  18
ATOM     18  N   LIG d   1      -3.635  94.495 119.141  0.00  0.00     0.381 N 
ATOM     19  H   LIG d   1      -4.211  94.505 118.323  0.00  0.00    -0.090 HD
ATOM     20  H   LIG d   1      -3.493  95.444 119.439  0.00  0.00    -0.090 HD
ATOM     21  H   LIG d   1      -4.083  93.976 119.865  0.00  0.00    -0.090 HD
ENDBRANCH   5  18
BRANCH   3  22
ATOM     22  C   LIG d   1       0.996  94.299 120.345  0.00  0.00     0.382 C 
ATOM     23  O   LIG d   1       2.150  93.889 120.071  0.00  0.00    -0.241 OA
ATOM     24  O   LIG d   1       0.856  95.271 121.111  0.00  0.00    -0.241 OA
ENDBRANCH   3  22
TORSDOF 7
ENDMDL
MODEL 9
REMARK VINA RESULT:      -4.2      2.552      5.978
REMARK  7 active torsions:
REMARK  status: ('A' for Active; 'I' for Inactive)
REMARK    1  A    between atoms: C_2  and  C_3 
REMARK    2  A    between atoms: C_3  and  O_6 
REMARK    3  A    between atoms: C_3  and  C_4 
REMARK    4  A    between atoms: C_7  and  O_6 
REMARK    5  A    between atoms: C_9  and  C_10 
REMARK    6  A    between atoms: N_15  and  C_14 
REMARK    7  A    between atoms: N_20  and  C_19 
REMARK       I    between atoms: C_22  and  N_20 
ROOT
ATOM      1  C   LIG d   1      -2.406  92.826 119.026  0.00  0.00     0.161 C 
ATOM      2  C   LIG d   1      -3.648  93.305 119.474  0.00  0.00     0.016 C 
ATOM      3  C   LIG d   1      -4.885  92.731 119.098  0.00  0.00     0.038 C 
ATOM      4  C   LIG d   1      -4.956  91.538 118.364  0.00  0.00     0.028 C 
ATOM      5  C   LIG d   1      -3.743  91.305 117.469  0.00  0.00    -0.047 C 
ATOM      6  C   LIG d   1      -2.458  91.458 118.314  0.00  0.00     0.091 C 
ENDROOT
BRANCH   1   7
ATOM      7  O   LIG d   1      -1.473  92.784 120.124  0.00  0.00    -0.368 OA
BRANCH   7   8
ATOM      8  C   LIG d   1      -0.365  93.715 120.056  0.00  0.00     0.119 C 
BRANCH   8   9
ATOM      9  C   LIG d   1      -0.577  94.596 118.809  0.00  0.00     0.028 C 
ATOM     10  C   LIG d   1      -0.592  96.096 119.147  0.00  0.00     0.006 C 
ENDBRANCH   8   9
BRANCH   8  11
ATOM     11  C   LIG d   1       0.960  92.986 119.817  0.00  0.00     0.028 C 
ATOM     12  C   LIG d   1       1.599  93.338 118.464  0.00  0.00     0.006 C 
ENDBRANCH   8  11
ENDBRANCH   7   8
ENDBRANCH   1   7
BRANCH   6  13
ATOM     13  N   LIG d   1      -1.224  91.329 117.497  0.00  0.00    -0.311 N 
ATOM     14  C   LIG d   1      -0.555  90.186 117.355  0.00  0.00     0.210 C 
ATOM     15  C   LIG d   1       0.703  90.276 116.485  0.00  0.00     0.109 C 
ATOM     16  O   LIG d   1      -0.902  89.098 117.840  0.00  0.00    -0.276 OA
ATOM     17  H   LIG d   1      -0.889  92.156 117.043  0.00  0.00     0.149 HD
ENDBRANCH   6  13
BRANCH   5  18
ATOM     18  N   LIG d   1      -3.884  89.965 116.868  0.00  0.00     0.381 N 
ATOM     19  H   LIG d   1      -3.035  89.450 116.987  0.00  0.00    -0.090 HD
ATOM     20  H   LIG d   1      -4.056  90.066 115.884  0.00  0.00    -0.090 HD
ATOM     21  H   LIG d   1      -4.640  89.477 117.297  0.00  0.00    -0.090 HD
ENDBRANCH   5  18
BRANCH   3  22
ATOM     22  C   LIG d   1      -6.069  93.375 119.425  0.00  0.00     0.382 C 
ATOM     23  O   LIG d   1      -6.931  93.589 118.539  0.00  0.00    -0.241 OA
ATOM     24  O   LIG d   1      -6.266  93.784 120.585  0.00  0.00    -0.241 OA
ENDBRANCH   3  22
TORSDOF 7
ENDMDL
