MODEL 1
REMARK VINA RESULT:      -5.3      0.000      0.000
REMARK  7 active torsions:
REMARK  status: ('A' for Active; 'I' for Inactive)
REMARK    1  A    between atoms: C_2  and  C_3 
REMARK    2  A    between atoms: C_3  and  O_6 
REMARK    3  A    between atoms: C_3  and  C_4 
REMARK    4  A    between atoms: C_7  and  O_6 
REMARK    5  A    between atoms: C_9  and  C_10 
REMARK    6  A    between atoms: N_15  and  C_14 
REMARK    7  A    between atoms: N_20  and  C_19 
REMARK       I    between atoms: C_22  and  N_20 
ROOT
ATOM      1  C   LIG d   1      -5.372  92.926 118.740  0.00  0.00     0.161 C 
ATOM      2  C   LIG d   1      -6.223  92.190 117.898  0.00  0.00     0.016 C 
ATOM      3  C   LIG d   1      -5.755  91.337 116.872  0.00  0.00     0.038 C 
ATOM      4  C   LIG d   1      -4.392  91.044 116.716  0.00  0.00     0.028 C 
ATOM      5  C   LIG d   1      -3.472  92.153 117.216  0.00  0.00    -0.047 C 
ATOM      6  C   LIG d   1      -3.882  92.533 118.657  0.00  0.00     0.091 C 
ENDROOT
BRANCH   1   7
ATOM      7  O   LIG d   1      -5.838  92.840 120.101  0.00  0.00    -0.368 OA
BRANCH   7   8
ATOM      8  C   LIG d   1      -6.131  94.100 120.755  0.00  0.00     0.119 C 
BRANCH   8   9
ATOM      9  C   LIG d   1      -7.542  93.988 121.363  0.00  0.00     0.028 C 
ATOM     10  C   LIG d   1      -8.641  94.429 120.381  0.00  0.00     0.006 C 
ENDBRANCH   8   9
BRANCH   8  11
ATOM     11  C   LIG d   1      -6.214  95.247 119.744  0.00  0.00     0.028 C 
ATOM     12  C   LIG d   1      -5.289  96.422 120.098  0.00  0.00     0.006 C 
ENDBRANCH   8  11
ENDBRANCH   7   8
ENDBRANCH   1   7
BRANCH   6  13
ATOM     13  N   LIG d   1      -3.087  93.670 119.191  0.00  0.00    -0.311 N 
ATOM     14  C   LIG d   1      -2.448  93.632 120.359  0.00  0.00     0.210 C 
ATOM     15  C   LIG d   1      -1.704  94.919 120.730  0.00  0.00     0.109 C 
ATOM     16  O   LIG d   1      -2.399  92.644 121.107  0.00  0.00    -0.276 OA
ATOM     17  H   LIG d   1      -3.047  94.500 118.634  0.00  0.00     0.149 HD
ENDBRANCH   6  13
BRANCH   5  18
ATOM     18  N   LIG d   1      -2.086  91.659 117.121  0.00  0.00     0.381 N 
ATOM     19  H   LIG d   1      -1.996  91.050 116.332  0.00  0.00    -0.090 HD
ATOM     20  H   LIG d   1      -1.869  91.135 117.950  0.00  0.00    -0.090 HD
ATOM     21  H   LIG d   1      -1.456  92.426 117.030  0.00  0.00    -0.090 HD
ENDBRANCH   5  18
BRANCH   3  22
ATOM     22  C   LIG d   1      -6.653  90.798 115.964  0.00  0.00     0.382 C 
ATOM     23  O   LIG d   1      -7.723  91.401 115.708  0.00  0.00    -0.241 OA
ATOM     24  O   LIG d   1      -6.427  89.696 115.430  0.00  0.00    -0.241 OA
ENDBRANCH   3  22
TORSDOF 7
ENDMDL
MODEL 2
REMARK VINA RESULT:      -5.1      3.394      5.370
REMARK  7 active torsions:
REMARK  status: ('A' for Active; 'I' for Inactive)
REMARK    1  A    between atoms: C_2  and  C_3 
REMARK    2  A    between atoms: C_3  and  O_6 
REMARK    3  A    between atoms: C_3  and  C_4 
REMARK    4  A    between atoms: C_7  and  O_6 
REMARK    5  A    between atoms: C_9  and  C_10 
REMARK    6  A    between atoms: N_15  and  C_14 
REMARK    7  A    between atoms: N_20  and  C_19 
REMARK       I    between atoms: C_22  and  N_20 
ROOT
ATOM      1  C   LIG d   1      -1.320  93.146 117.970  0.00  0.00     0.161 C 
ATOM      2  C   LIG d   1      -0.514  92.399 117.094  0.00  0.00     0.016 C 
ATOM      3  C   LIG d   1       0.583  91.617 117.522  0.00  0.00     0.038 C 
ATOM      4  C   LIG d   1       0.858  91.407 118.881  0.00  0.00     0.028 C 
ATOM      5  C   LIG d   1       0.381  92.543 119.779  0.00  0.00    -0.047 C 
ATOM      6  C   LIG d   1      -1.103  92.840 119.467  0.00  0.00     0.091 C 
ENDROOT
BRANCH   1   7
ATOM      7  O   LIG d   1      -2.708  92.978 117.620  0.00  0.00    -0.368 OA
BRANCH   7   8
ATOM      8  C   LIG d   1      -3.297  91.695 117.946  0.00  0.00     0.119 C 
BRANCH   8   9
ATOM      9  C   LIG d   1      -4.060  91.205 116.700  0.00  0.00     0.028 C 
ATOM     10  C   LIG d   1      -5.482  91.785 116.617  0.00  0.00     0.006 C 
ENDBRANCH   8   9
BRANCH   8  11
ATOM     11  C   LIG d   1      -4.357  91.831 119.043  0.00  0.00     0.028 C 
ATOM     12  C   LIG d   1      -4.257  90.728 120.108  0.00  0.00     0.006 C 
ENDBRANCH   8  11
ENDBRANCH   7   8
ENDBRANCH   1   7
BRANCH   6  13
ATOM     13  N   LIG d   1      -1.626  93.996 120.242  0.00  0.00    -0.311 N 
ATOM     14  C   LIG d   1      -2.215  93.876 121.430  0.00  0.00     0.210 C 
ATOM     15  C   LIG d   1      -2.698  95.191 122.048  0.00  0.00     0.109 C 
ATOM     16  O   LIG d   1      -2.354  92.808 122.046  0.00  0.00    -0.276 OA
ATOM     17  H   LIG d   1      -1.526  94.903 119.830  0.00  0.00     0.149 HD
ENDBRANCH   6  13
BRANCH   5  18
ATOM     18  N   LIG d   1       0.607  92.132 121.177  0.00  0.00     0.381 N 
ATOM     19  H   LIG d   1       0.694  92.942 121.759  0.00  0.00    -0.090 HD
ATOM     20  H   LIG d   1       1.465  91.612 121.229  0.00  0.00    -0.090 HD
ATOM     21  H   LIG d   1      -0.151  91.568 121.493  0.00  0.00    -0.090 HD
ENDBRANCH   5  18
BRANCH   3  22
ATOM     22  C   LIG d   1       1.443  91.067 116.583  0.00  0.00     0.382 C 
ATOM     23  O   LIG d   1       1.143  89.991 116.013  0.00  0.00    -0.241 OA
ATOM     24  O   LIG d   1       2.535  91.611 116.332  0.00  0.00    -0.241 OA
ENDBRANCH   3  22
TORSDOF 7
ENDMDL
MODEL 3
REMARK VINA RESULT:      -4.9      2.200      4.398
REMARK  7 active torsions:
REMARK  status: ('A' for Active; 'I' for Inactive)
REMARK    1  A    between atoms: C_2  and  C_3 
REMARK    2  A    between atoms: C_3  and  O_6 
REMARK    3  A    between atoms: C_3  and  C_4 
REMARK    4  A    between atoms: C_7  and  O_6 
REMARK    5  A    between atoms: C_9  and  C_10 
REMARK    6  A    between atoms: N_15  and  C_14 
REMARK    7  A    between atoms: N_20  and  C_19 
REMARK       I    between atoms: C_22  and  N_20 
ROOT
ATOM      1  C   LIG d   1      -3.735  92.102 118.148  0.00  0.00     0.161 C 
ATOM      2  C   LIG d   1      -4.401  91.469 117.085  0.00  0.00     0.016 C 
ATOM      3  C   LIG d   1      -5.794  91.575 116.866  0.00  0.00     0.038 C 
ATOM      4  C   LIG d   1      -6.597  92.451 117.612  0.00  0.00     0.028 C 
ATOM      5  C   LIG d   1      -6.058  92.723 119.012  0.00  0.00    -0.047 C 
ATOM      6  C   LIG d   1      -4.576  93.150 118.906  0.00  0.00     0.091 C 
ENDROOT
BRANCH   1   7
ATOM      7  O   LIG d   1      -2.509  92.692 117.673  0.00  0.00    -0.368 OA
BRANCH   7   8
ATOM      8  C   LIG d   1      -1.284  92.035 118.084  0.00  0.00     0.119 C 
BRANCH   8   9
ATOM      9  C   LIG d   1      -0.552  92.984 119.052  0.00  0.00     0.028 C 
ATOM     10  C   LIG d   1      -0.443  92.403 120.472  0.00  0.00     0.006 C 
ENDBRANCH   8   9
BRANCH   8  11
ATOM     11  C   LIG d   1      -0.329  91.846 116.901  0.00  0.00     0.028 C 
ATOM     12  C   LIG d   1       1.068  91.373 117.334  0.00  0.00     0.006 C 
ENDBRANCH   8  11
ENDBRANCH   7   8
ENDBRANCH   1   7
BRANCH   6  13
ATOM     13  N   LIG d   1      -3.948  93.354 120.237  0.00  0.00    -0.311 N 
ATOM     14  C   LIG d   1      -3.534  94.541 120.678  0.00  0.00     0.210 C 
ATOM     15  C   LIG d   1      -2.896  94.526 122.071  0.00  0.00     0.109 C 
ATOM     16  O   LIG d   1      -3.665  95.609 120.062  0.00  0.00    -0.276 OA
ATOM     17  H   LIG d   1      -3.831  92.545 120.815  0.00  0.00     0.149 HD
ENDBRANCH   6  13
BRANCH   5  18
ATOM     18  N   LIG d   1      -6.914  93.755 119.627  0.00  0.00     0.381 N 
ATOM     19  H   LIG d   1      -7.739  93.882 119.076  0.00  0.00    -0.090 HD
ATOM     20  H   LIG d   1      -6.411  94.624 119.648  0.00  0.00    -0.090 HD
ATOM     21  H   LIG d   1      -7.163  93.484 120.553  0.00  0.00    -0.090 HD
ENDBRANCH   5  18
BRANCH   3  22
ATOM     22  C   LIG d   1      -6.404  90.770 115.917  0.00  0.00     0.382 C 
ATOM     23  O   LIG d   1      -7.591  90.992 115.575  0.00  0.00    -0.241 OA
ATOM     24  O   LIG d   1      -5.797  89.797 115.430  0.00  0.00    -0.241 OA
ENDBRANCH   3  22
TORSDOF 7
ENDMDL
MODEL 4
REMARK VINA RESULT:      -4.9      1.897      5.027
REMARK  7 active torsions:
REMARK  status: ('A' for Active; 'I' for Inactive)
REMARK    1  A    between atoms: C_2  and  C_3 
REMARK    2  A    between atoms: C_3  and  O_6 
REMARK    3  A    between atoms: C_3  and  C_4 
REMARK    4  A    between atoms: C_7  and  O_6 
REMARK    5  A    between atoms: C_9  and  C_10 
REMARK    6  A    between atoms: N_15  and  C_14 
REMARK    7  A    between atoms: N_20  and  C_19 
REMARK       I    between atoms: C_22  and  N_20 
ROOT
ATOM      1  C   LIG d   1      -3.533  91.351 119.554  0.00  0.00     0.161 C 
ATOM      2  C   LIG d   1      -2.651  91.704 120.589  0.00  0.00     0.016 C 
ATOM      3  C   LIG d   1      -1.555  92.580 120.414  0.00  0.00     0.038 C 
ATOM      4  C   LIG d   1      -1.356  93.288 119.219  0.00  0.00     0.028 C 
ATOM      5  C   LIG d   1      -1.925  92.580 117.994  0.00  0.00    -0.047 C 
ATOM      6  C   LIG d   1      -3.397  92.199 118.272  0.00  0.00     0.091 C 
ENDROOT
BRANCH   1   7
ATOM      7  O   LIG d   1      -4.891  91.386 120.037  0.00  0.00    -0.368 OA
BRANCH   7   8
ATOM      8  C   LIG d   1      -5.143  92.256 121.168  0.00  0.00     0.119 C 
BRANCH   8   9
ATOM      9  C   LIG d   1      -5.915  91.435 122.219  0.00  0.00     0.028 C 
ATOM     10  C   LIG d   1      -7.005  92.260 122.924  0.00  0.00     0.006 C 
ENDBRANCH   8   9
BRANCH   8  11
ATOM     11  C   LIG d   1      -6.077  93.408 120.788  0.00  0.00     0.028 C 
ATOM     12  C   LIG d   1      -5.324  94.624 120.225  0.00  0.00     0.006 C 
ENDBRANCH   8  11
ENDBRANCH   7   8
ENDBRANCH   1   7
BRANCH   6  13
ATOM     13  N   LIG d   1      -4.004  91.428 117.157  0.00  0.00    -0.311 N 
ATOM     14  C   LIG d   1      -5.267  91.581 116.761  0.00  0.00     0.210 C 
ATOM     15  C   LIG d   1      -5.697  90.673 115.605  0.00  0.00     0.109 C 
ATOM     16  O   LIG d   1      -6.061  92.407 117.236  0.00  0.00    -0.276 OA
ATOM     17  H   LIG d   1      -3.421  90.758 116.695  0.00  0.00     0.149 HD
ENDBRANCH   6  13
BRANCH   5  18
ATOM     18  N   LIG d   1      -1.770  93.488 116.842  0.00  0.00     0.381 N 
ATOM     19  H   LIG d   1      -2.451  94.219 116.894  0.00  0.00    -0.090 HD
ATOM     20  H   LIG d   1      -1.928  92.970 115.996  0.00  0.00    -0.090 HD
ATOM     21  H   LIG d   1      -0.853  93.878 116.836  0.00  0.00    -0.090 HD
ENDBRANCH   5  18
BRANCH   3  22
ATOM     22  C   LIG d   1      -0.622  92.726 121.429  0.00  0.00     0.382 C 
ATOM     23  O   LIG d   1      -0.016  93.815 121.571  0.00  0.00    -0.241 OA
ATOM     24  O   LIG d   1      -0.347  91.769 122.176  0.00  0.00    -0.241 OA
ENDBRANCH   3  22
TORSDOF 7
ENDMDL
MODEL 5
REMARK VINA RESULT:      -4.9      2.784      5.301
REMARK  7 active torsions:
REMARK  status: ('A' for Active; 'I' for Inactive)
REMARK    1  A    between atoms: C_2  and  C_3 
REMARK    2  A    between atoms: C_3  and  O_6 
REMARK    3  A    between atoms: C_3  and  C_4 
REMARK    4  A    between atoms: C_7  and  O_6 
REMARK    5  A    between atoms: C_9  and  C_10 
REMARK    6  A    between atoms: N_15  and  C_14 
REMARK    7  A    between atoms: N_20  and  C_19 
REMARK       I    between atoms: C_22  and  N_20 
ROOT
ATOM      1  C   LIG d   1      -2.230  93.268 117.792  0.00  0.00     0.161 C 
ATOM      2  C   LIG d   1      -1.145  92.441 117.457  0.00  0.00     0.016 C 
ATOM      3  C   LIG d   1      -0.128  92.084 118.372  0.00  0.00     0.038 C 
ATOM      4  C   LIG d   1      -0.207  92.410 119.734  0.00  0.00     0.028 C 
ATOM      5  C   LIG d   1      -1.025  93.668 120.009  0.00  0.00    -0.047 C 
ATOM      6  C   LIG d   1      -2.393  93.542 119.302  0.00  0.00     0.091 C 
ENDROOT
BRANCH   1   7
ATOM      7  O   LIG d   1      -3.448  92.721 117.248  0.00  0.00    -0.368 OA
BRANCH   7   8
ATOM      8  C   LIG d   1      -3.762  91.360 117.633  0.00  0.00     0.119 C 
BRANCH   8   9
ATOM      9  C   LIG d   1      -4.448  90.685 116.428  0.00  0.00     0.028 C 
ATOM     10  C   LIG d   1      -5.696  91.450 115.959  0.00  0.00     0.006 C 
ENDBRANCH   8   9
BRANCH   8  11
ATOM     11  C   LIG d   1      -4.798  91.325 118.760  0.00  0.00     0.028 C 
ATOM     12  C   LIG d   1      -4.251  90.699 120.053  0.00  0.00     0.006 C 
ENDBRANCH   8  11
ENDBRANCH   7   8
ENDBRANCH   1   7
BRANCH   6  13
ATOM     13  N   LIG d   1      -3.223  94.766 119.450  0.00  0.00    -0.311 N 
ATOM     14  C   LIG d   1      -4.165  94.905 120.381  0.00  0.00     0.210 C 
ATOM     15  C   LIG d   1      -4.917  96.239 120.346  0.00  0.00     0.109 C 
ATOM     16  O   LIG d   1      -4.426  94.064 121.254  0.00  0.00    -0.276 OA
ATOM     17  H   LIG d   1      -3.055  95.512 118.803  0.00  0.00     0.149 HD
ENDBRANCH   6  13
BRANCH   5  18
ATOM     18  N   LIG d   1      -1.141  93.813 121.472  0.00  0.00     0.381 N 
ATOM     19  H   LIG d   1      -0.827  94.721 121.749  0.00  0.00    -0.090 HD
ATOM     20  H   LIG d   1      -0.554  93.128 121.915  0.00  0.00    -0.090 HD
ATOM     21  H   LIG d   1      -2.088  93.681 121.754  0.00  0.00    -0.090 HD
ENDBRANCH   5  18
BRANCH   3  22
ATOM     22  C   LIG d   1       1.006  91.427 117.917  0.00  0.00     0.382 C 
ATOM     23  O   LIG d   1       1.481  91.705 116.790  0.00  0.00    -0.241 OA
ATOM     24  O   LIG d   1       1.532  90.529 118.601  0.00  0.00    -0.241 OA
ENDBRANCH   3  22
TORSDOF 7
ENDMDL
MODEL 6
REMARK VINA RESULT:      -4.8      3.083      5.053
REMARK  7 active torsions:
REMARK  status: ('A' for Active; 'I' for Inactive)
REMARK    1  A    between atoms: C_2  and  C_3 
REMARK    2  A    between atoms: C_3  and  O_6 
REMARK    3  A    between atoms: C_3  and  C_4 
REMARK    4  A    between atoms: C_7  and  O_6 
REMARK    5  A    between atoms: C_9  and  C_10 
REMARK    6  A    between atoms: N_15  and  C_14 
REMARK    7  A    between atoms: N_20  and  C_19 
REMARK       I    between atoms: C_22  and  N_20 
ROOT
ATOM      1  C   LIG d   1      -2.199  92.247 118.176  0.00  0.00     0.161 C 
ATOM      2  C   LIG d   1      -1.212  91.709 117.334  0.00  0.00     0.016 C 
ATOM      3  C   LIG d   1       0.147  91.592 117.705  0.00  0.00     0.038 C 
ATOM      4  C   LIG d   1       0.587  91.868 119.008  0.00  0.00     0.028 C 
ATOM      5  C   LIG d   1      -0.280  92.889 119.736  0.00  0.00    -0.047 C 
ATOM      6  C   LIG d   1      -1.759  92.451 119.641  0.00  0.00     0.091 C 
ENDROOT
BRANCH   1   7
ATOM      7  O   LIG d   1      -3.388  91.434 118.119  0.00  0.00    -0.368 OA
BRANCH   7   8
ATOM      8  C   LIG d   1      -4.509  91.994 117.393  0.00  0.00     0.119 C 
BRANCH   8   9
ATOM      9  C   LIG d   1      -5.728  91.973 118.336  0.00  0.00     0.028 C 
ATOM     10  C   LIG d   1      -6.059  93.366 118.898  0.00  0.00     0.006 C 
ENDBRANCH   8   9
BRANCH   8  11
ATOM     11  C   LIG d   1      -4.901  91.111 116.205  0.00  0.00     0.028 C 
ATOM     12  C   LIG d   1      -6.217  91.550 115.544  0.00  0.00     0.006 C 
ENDBRANCH   8  11
ENDBRANCH   7   8
ENDBRANCH   1   7
BRANCH   6  13
ATOM     13  N   LIG d   1      -2.683  93.439 120.256  0.00  0.00    -0.311 N 
ATOM     14  C   LIG d   1      -3.126  93.348 121.509  0.00  0.00     0.210 C 
ATOM     15  C   LIG d   1      -4.088  94.462 121.937  0.00  0.00     0.109 C 
ATOM     16  O   LIG d   1      -2.789  92.470 122.316  0.00  0.00    -0.276 OA
ATOM     17  H   LIG d   1      -2.983  94.202 119.681  0.00  0.00     0.149 HD
ENDBRANCH   6  13
BRANCH   5  18
ATOM     18  N   LIG d   1       0.209  92.979 121.125  0.00  0.00     0.381 N 
ATOM     19  H   LIG d   1       0.445  93.928 121.340  0.00  0.00    -0.090 HD
ATOM     20  H   LIG d   1       1.039  92.420 121.214  0.00  0.00    -0.090 HD
ATOM     21  H   LIG d   1      -0.490  92.652 121.754  0.00  0.00    -0.090 HD
ENDBRANCH   5  18
BRANCH   3  22
ATOM     22  C   LIG d   1       1.090  91.231 116.754  0.00  0.00     0.382 C 
ATOM     23  O   LIG d   1       0.926  90.192 116.071  0.00  0.00    -0.241 OA
ATOM     24  O   LIG d   1       2.124  91.909 116.601  0.00  0.00    -0.241 OA
ENDBRANCH   3  22
TORSDOF 7
ENDMDL
MODEL 7
REMARK VINA RESULT:      -4.8      2.344      5.954
REMARK  7 active torsions:
REMARK  status: ('A' for Active; 'I' for Inactive)
REMARK    1  A    between atoms: C_2  and  C_3 
REMARK    2  A    between atoms: C_3  and  O_6 
REMARK    3  A    between atoms: C_3  and  C_4 
REMARK    4  A    between atoms: C_7  and  O_6 
REMARK    5  A    between atoms: C_9  and  C_10 
REMARK    6  A    between atoms: N_15  and  C_14 
REMARK    7  A    between atoms: N_20  and  C_19 
REMARK       I    between atoms: C_22  and  N_20 
ROOT
ATOM      1  C   LIG d   1      -4.416  93.258 119.559  0.00  0.00     0.161 C 
ATOM      2  C   LIG d   1      -4.451  94.021 120.738  0.00  0.00     0.016 C 
ATOM      3  C   LIG d   1      -5.625  94.629 121.237  0.00  0.00     0.038 C 
ATOM      4  C   LIG d   1      -6.884  94.388 120.667  0.00  0.00     0.028 C 
ATOM      5  C   LIG d   1      -6.821  94.035 119.184  0.00  0.00    -0.047 C 
ATOM      6  C   LIG d   1      -5.800  92.892 118.984  0.00  0.00     0.091 C 
ENDROOT
BRANCH   1   7
ATOM      7  O   LIG d   1      -3.630  92.068 119.770  0.00  0.00    -0.368 OA
BRANCH   7   8
ATOM      8  C   LIG d   1      -2.330  92.040 119.131  0.00  0.00     0.119 C 
BRANCH   8   9
ATOM      9  C   LIG d   1      -1.440  93.073 119.850  0.00  0.00     0.028 C 
ATOM     10  C   LIG d   1      -0.934  92.566 121.211  0.00  0.00     0.006 C 
ENDBRANCH   8   9
BRANCH   8  11
ATOM     11  C   LIG d   1      -2.413  92.517 117.678  0.00  0.00     0.028 C 
ATOM     12  C   LIG d   1      -1.429  93.657 117.368  0.00  0.00     0.006 C 
ENDBRANCH   8  11
ENDBRANCH   7   8
ENDBRANCH   1   7
BRANCH   6  13
ATOM     13  N   LIG d   1      -5.614  92.542 117.552  0.00  0.00    -0.311 N 
ATOM     14  C   LIG d   1      -6.303  91.582 116.936  0.00  0.00     0.210 C 
ATOM     15  C   LIG d   1      -5.942  91.371 115.462  0.00  0.00     0.109 C 
ATOM     16  O   LIG d   1      -7.201  90.908 117.462  0.00  0.00    -0.276 OA
ATOM     17  H   LIG d   1      -4.927  93.061 117.041  0.00  0.00     0.149 HD
ENDBRANCH   6  13
BRANCH   5  18
ATOM     18  N   LIG d   1      -8.185  93.675 118.753  0.00  0.00     0.381 N 
ATOM     19  H   LIG d   1      -8.140  93.083 117.948  0.00  0.00    -0.090 HD
ATOM     20  H   LIG d   1      -8.678  94.513 118.502  0.00  0.00    -0.090 HD
ATOM     21  H   LIG d   1      -8.663  93.208 119.491  0.00  0.00    -0.090 HD
ENDBRANCH   5  18
BRANCH   3  22
ATOM     22  C   LIG d   1      -5.541  95.522 122.294  0.00  0.00     0.382 C 
ATOM     23  O   LIG d   1      -4.425  95.974 122.646  0.00  0.00    -0.241 OA
ATOM     24  O   LIG d   1      -6.562  95.846 122.930  0.00  0.00    -0.241 OA
ENDBRANCH   3  22
TORSDOF 7
ENDMDL
MODEL 8
REMARK VINA RESULT:      -4.7      1.503      4.658
REMARK  7 active torsions:
REMARK  status: ('A' for Active; 'I' for Inactive)
REMARK    1  A    between atoms: C_2  and  C_3 
REMARK    2  A    between atoms: C_3  and  O_6 
REMARK    3  A    between atoms: C_3  and  C_4 
REMARK    4  A    between atoms: C_7  and  O_6 
REMARK    5  A    between atoms: C_9  and  C_10 
REMARK    6  A    between atoms: N_15  and  C_14 
REMARK    7  A    between atoms: N_20  and  C_19 
REMARK       I    between atoms: C_22  and  N_20 
ROOT
ATOM      1  C   LIG d   1      -5.457  92.924 119.536  0.00  0.00     0.161 C 
ATOM      2  C   LIG d   1      -4.402  93.446 120.302  0.00  0.00     0.016 C 
ATOM      3  C   LIG d   1      -3.041  93.321 119.940  0.00  0.00     0.038 C 
ATOM      4  C   LIG d   1      -2.649  92.793 118.701  0.00  0.00     0.028 C 
ATOM      5  C   LIG d   1      -3.650  91.798 118.122  0.00  0.00    -0.047 C 
ATOM      6  C   LIG d   1      -5.056  92.442 118.126  0.00  0.00     0.091 C 
ENDROOT
BRANCH   1   7
ATOM      7  O   LIG d   1      -6.524  93.890 119.450  0.00  0.00    -0.368 OA
BRANCH   7   8
ATOM      8  C   LIG d   1      -6.705  94.743 120.607  0.00  0.00     0.119 C 
BRANCH   8   9
ATOM      9  C   LIG d   1      -7.820  94.122 121.470  0.00  0.00     0.028 C 
ATOM     10  C   LIG d   1      -9.185  94.791 121.236  0.00  0.00     0.006 C 
ENDBRANCH   8   9
BRANCH   8  11
ATOM     11  C   LIG d   1      -7.227  96.125 120.204  0.00  0.00     0.028 C 
ATOM     12  C   LIG d   1      -6.117  97.186 120.142  0.00  0.00     0.006 C 
ENDBRANCH   8  11
ENDBRANCH   7   8
ENDBRANCH   1   7
BRANCH   6  13
ATOM     13  N   LIG d   1      -6.109  91.506 117.654  0.00  0.00    -0.311 N 
ATOM     14  C   LIG d   1      -6.451  91.371 116.374  0.00  0.00     0.210 C 
ATOM     15  C   LIG d   1      -7.575  90.365 116.106  0.00  0.00     0.109 C 
ATOM     16  O   LIG d   1      -5.907  91.966 115.431  0.00  0.00    -0.276 OA
ATOM     17  H   LIG d   1      -6.580  90.961 118.350  0.00  0.00     0.149 HD
ENDBRANCH   6  13
BRANCH   5  18
ATOM     18  N   LIG d   1      -3.185  91.433 116.771  0.00  0.00     0.381 N 
ATOM     19  H   LIG d   1      -2.919  90.469 116.754  0.00  0.00    -0.090 HD
ATOM     20  H   LIG d   1      -2.379  91.987 116.543  0.00  0.00    -0.090 HD
ATOM     21  H   LIG d   1      -3.909  91.596 116.106  0.00  0.00    -0.090 HD
ENDBRANCH   5  18
BRANCH   3  22
ATOM     22  C   LIG d   1      -2.053  93.692 120.840  0.00  0.00     0.382 C 
ATOM     23  O   LIG d   1      -1.931  93.075 121.925  0.00  0.00    -0.241 OA
ATOM     24  O   LIG d   1      -1.311  94.663 120.599  0.00  0.00    -0.241 OA
ENDBRANCH   3  22
TORSDOF 7
ENDMDL
MODEL 9
REMARK VINA RESULT:      -4.7      2.020      4.984
REMARK  7 active torsions:
REMARK  status: ('A' for Active; 'I' for Inactive)
REMARK    1  A    between atoms: C_2  and  C_3 
REMARK    2  A    between atoms: C_3  and  O_6 
REMARK    3  A    between atoms: C_3  and  C_4 
REMARK    4  A    between atoms: C_7  and  O_6 
REMARK    5  A    between atoms: C_9  and  C_10 
REMARK    6  A    between atoms: N_15  and  C_14 
REMARK    7  A    between atoms: N_20  and  C_19 
REMARK       I    between atoms: C_22  and  N_20 
ROOT
ATOM      1  C   LIG d   1      -5.587  93.164 119.393  0.00  0.00     0.161 C 
ATOM      2  C   LIG d   1      -6.941  93.534 119.358  0.00  0.00     0.016 C 
ATOM      3  C   LIG d   1      -7.476  94.600 120.117  0.00  0.00     0.038 C 
ATOM      4  C   LIG d   1      -6.658  95.471 120.852  0.00  0.00     0.028 C 
ATOM      5  C   LIG d   1      -5.355  94.829 121.316  0.00  0.00    -0.047 C 
ATOM      6  C   LIG d   1      -4.659  94.171 120.103  0.00  0.00     0.091 C 
ENDROOT
BRANCH   1   7
ATOM      7  O   LIG d   1      -5.116  92.906 118.055  0.00  0.00    -0.368 OA
BRANCH   7   8
ATOM      8  C   LIG d   1      -5.386  91.584 117.527  0.00  0.00     0.119 C 
BRANCH   8   9
ATOM      9  C   LIG d   1      -4.085  91.068 116.884  0.00  0.00     0.028 C 
ATOM     10  C   LIG d   1      -2.852  91.878 117.322  0.00  0.00     0.006 C 
ENDBRANCH   8   9
BRANCH   8  11
ATOM     11  C   LIG d   1      -6.408  91.637 116.388  0.00  0.00     0.028 C 
ATOM     12  C   LIG d   1      -6.295  90.440 115.430  0.00  0.00     0.006 C 
ENDBRANCH   8  11
ENDBRANCH   7   8
ENDBRANCH   1   7
BRANCH   6  13
ATOM     13  N   LIG d   1      -3.418  93.448 120.485  0.00  0.00    -0.311 N 
ATOM     14  C   LIG d   1      -2.200  93.977 120.382  0.00  0.00     0.210 C 
ATOM     15  C   LIG d   1      -1.055  93.054 120.811  0.00  0.00     0.109 C 
ATOM     16  O   LIG d   1      -1.961  95.135 120.007  0.00  0.00    -0.276 OA
ATOM     17  H   LIG d   1      -3.522  92.513 120.829  0.00  0.00     0.149 HD
ENDBRANCH   6  13
BRANCH   5  18
ATOM     18  N   LIG d   1      -4.539  95.883 121.949  0.00  0.00     0.381 N 
ATOM     19  H   LIG d   1      -4.993  96.210 122.778  0.00  0.00    -0.090 HD
ATOM     20  H   LIG d   1      -4.454  96.655 121.311  0.00  0.00    -0.090 HD
ATOM     21  H   LIG d   1      -3.636  95.527 122.174  0.00  0.00    -0.090 HD
ENDBRANCH   5  18
BRANCH   3  22
ATOM     22  C   LIG d   1      -8.850  94.780 120.177  0.00  0.00     0.382 C 
ATOM     23  O   LIG d   1      -9.612  94.004 119.551  0.00  0.00    -0.241 OA
ATOM     24  O   LIG d   1      -9.335  95.735 120.812  0.00  0.00    -0.241 OA
ENDBRANCH   3  22
TORSDOF 7
ENDMDL
