MODEL 1
REMARK VINA RESULT:      -4.8      0.000      0.000
REMARK  7 active torsions:
REMARK  status: ('A' for Active; 'I' for Inactive)
REMARK    1  A    between atoms: C_2  and  C_3 
REMARK    2  A    between atoms: C_3  and  O_6 
REMARK    3  A    between atoms: C_3  and  C_4 
REMARK    4  A    between atoms: C_7  and  O_6 
REMARK    5  A    between atoms: C_9  and  C_10 
REMARK    6  A    between atoms: N_15  and  C_14 
REMARK    7  A    between atoms: N_20  and  C_19 
REMARK       I    between atoms: C_22  and  N_20 
ROOT
ATOM      1  C   LIG d   1      -5.561  93.232 118.660  0.00  0.00     0.161 C 
ATOM      2  C   LIG d   1      -6.395  92.555 117.755  0.00  0.00     0.016 C 
ATOM      3  C   LIG d   1      -5.928  91.572 116.853  0.00  0.00     0.038 C 
ATOM      4  C   LIG d   1      -4.613  91.087 116.901  0.00  0.00     0.028 C 
ATOM      5  C   LIG d   1      -3.615  92.097 117.456  0.00  0.00    -0.047 C 
ATOM      6  C   LIG d   1      -4.145  92.638 118.803  0.00  0.00     0.091 C 
ENDROOT
BRANCH   1   7
ATOM      7  O   LIG d   1      -6.203  93.313 119.949  0.00  0.00    -0.368 OA
BRANCH   7   8
ATOM      8  C   LIG d   1      -6.957  94.523 120.210  0.00  0.00     0.119 C 
BRANCH   8   9
ATOM      9  C   LIG d   1      -6.222  95.686 119.516  0.00  0.00     0.028 C 
ATOM     10  C   LIG d   1      -7.178  96.601 118.734  0.00  0.00     0.006 C 
ENDBRANCH   8   9
BRANCH   8  11
ATOM     11  C   LIG d   1      -6.951  94.872 121.701  0.00  0.00     0.028 C 
ATOM     12  C   LIG d   1      -5.900  94.079 122.494  0.00  0.00     0.006 C 
ENDBRANCH   8  11
ENDBRANCH   7   8
ENDBRANCH   1   7
BRANCH   6  13
ATOM     13  N   LIG d   1      -3.269  93.694 119.374  0.00  0.00    -0.311 N 
ATOM     14  C   LIG d   1      -2.680  93.594 120.565  0.00  0.00     0.210 C 
ATOM     15  C   LIG d   1      -1.835  94.805 120.972  0.00  0.00     0.109 C 
ATOM     16  O   LIG d   1      -2.751  92.604 121.308  0.00  0.00    -0.276 OA
ATOM     17  H   LIG d   1      -3.132  94.519 118.824  0.00  0.00     0.149 HD
ENDBRANCH   6  13
BRANCH   5  18
ATOM     18  N   LIG d   1      -2.312  91.416 117.578  0.00  0.00     0.381 N 
ATOM     19  H   LIG d   1      -2.446  90.489 117.929  0.00  0.00    -0.090 HD
ATOM     20  H   LIG d   1      -1.741  91.921 118.232  0.00  0.00    -0.090 HD
ATOM     21  H   LIG d   1      -1.861  91.380 116.690  0.00  0.00    -0.090 HD
ENDBRANCH   5  18
BRANCH   3  22
ATOM     22  C   LIG d   1      -6.772  91.091 115.863  0.00  0.00     0.382 C 
ATOM     23  O   LIG d   1      -7.704  91.810 115.430  0.00  0.00    -0.241 OA
ATOM     24  O   LIG d   1      -6.641  89.930 115.430  0.00  0.00    -0.241 OA
ENDBRANCH   3  22
TORSDOF 7
ENDMDL
MODEL 2
REMARK VINA RESULT:      -4.8      2.105      4.324
REMARK  7 active torsions:
REMARK  status: ('A' for Active; 'I' for Inactive)
REMARK    1  A    between atoms: C_2  and  C_3 
REMARK    2  A    between atoms: C_3  and  O_6 
REMARK    3  A    between atoms: C_3  and  C_4 
REMARK    4  A    between atoms: C_7  and  O_6 
REMARK    5  A    between atoms: C_9  and  C_10 
REMARK    6  A    between atoms: N_15  and  C_14 
REMARK    7  A    between atoms: N_20  and  C_19 
REMARK       I    between atoms: C_22  and  N_20 
ROOT
ATOM      1  C   LIG d   1      -3.827  91.925 118.131  0.00  0.00     0.161 C 
ATOM      2  C   LIG d   1      -4.583  91.428 117.056  0.00  0.00     0.016 C 
ATOM      3  C   LIG d   1      -5.933  91.780 116.826  0.00  0.00     0.038 C 
ATOM      4  C   LIG d   1      -6.577  92.778 117.574  0.00  0.00     0.028 C 
ATOM      5  C   LIG d   1      -6.013  92.939 118.981  0.00  0.00    -0.047 C 
ATOM      6  C   LIG d   1      -4.478  93.099 118.891  0.00  0.00     0.091 C 
ENDROOT
BRANCH   1   7
ATOM      7  O   LIG d   1      -2.511  92.294 117.672  0.00  0.00    -0.368 OA
BRANCH   7   8
ATOM      8  C   LIG d   1      -1.425  91.432 118.094  0.00  0.00     0.119 C 
BRANCH   8   9
ATOM      9  C   LIG d   1      -2.049  90.214 118.803  0.00  0.00     0.028 C 
ATOM     10  C   LIG d   1      -1.751  88.894 118.072  0.00  0.00     0.006 C 
ENDBRANCH   8   9
BRANCH   8  11
ATOM     11  C   LIG d   1      -0.551  92.113 119.151  0.00  0.00     0.028 C 
ATOM     12  C   LIG d   1      -0.318  93.604 118.861  0.00  0.00     0.006 C 
ENDBRANCH   8  11
ENDBRANCH   7   8
ENDBRANCH   1   7
BRANCH   6  13
ATOM     13  N   LIG d   1      -3.837  93.179 120.230  0.00  0.00    -0.311 N 
ATOM     14  C   LIG d   1      -3.524  94.328 120.826  0.00  0.00     0.210 C 
ATOM     15  C   LIG d   1      -2.851  94.184 122.195  0.00  0.00     0.109 C 
ATOM     16  O   LIG d   1      -3.769  95.453 120.365  0.00  0.00    -0.276 OA
ATOM     17  H   LIG d   1      -3.631  92.313 120.689  0.00  0.00     0.149 HD
ENDBRANCH   6  13
BRANCH   5  18
ATOM     18  N   LIG d   1      -6.680  94.101 119.598  0.00  0.00     0.381 N 
ATOM     19  H   LIG d   1      -6.971  93.870 120.528  0.00  0.00    -0.090 HD
ATOM     20  H   LIG d   1      -7.497  94.330 119.060  0.00  0.00    -0.090 HD
ATOM     21  H   LIG d   1      -6.059  94.879 119.620  0.00  0.00    -0.090 HD
ENDBRANCH   5  18
BRANCH   3  22
ATOM     22  C   LIG d   1      -6.666  91.103 115.864  0.00  0.00     0.382 C 
ATOM     23  O   LIG d   1      -7.753  91.576 115.455  0.00  0.00    -0.241 OA
ATOM     24  O   LIG d   1      -6.275  90.002 115.431  0.00  0.00    -0.241 OA
ENDBRANCH   3  22
TORSDOF 7
ENDMDL
MODEL 3
REMARK VINA RESULT:      -4.7      0.762      1.716
REMARK  7 active torsions:
REMARK  status: ('A' for Active; 'I' for Inactive)
REMARK    1  A    between atoms: C_2  and  C_3 
REMARK    2  A    between atoms: C_3  and  O_6 
REMARK    3  A    between atoms: C_3  and  C_4 
REMARK    4  A    between atoms: C_7  and  O_6 
REMARK    5  A    between atoms: C_9  and  C_10 
REMARK    6  A    between atoms: N_15  and  C_14 
REMARK    7  A    between atoms: N_20  and  C_19 
REMARK       I    between atoms: C_22  and  N_20 
ROOT
ATOM      1  C   LIG d   1      -5.417  93.182 118.730  0.00  0.00     0.161 C 
ATOM      2  C   LIG d   1      -6.272  92.540 117.818  0.00  0.00     0.016 C 
ATOM      3  C   LIG d   1      -5.829  91.579 116.881  0.00  0.00     0.038 C 
ATOM      4  C   LIG d   1      -4.518  91.079 116.895  0.00  0.00     0.028 C 
ATOM      5  C   LIG d   1      -3.501  92.063 117.463  0.00  0.00    -0.047 C 
ATOM      6  C   LIG d   1      -4.005  92.570 118.834  0.00  0.00     0.091 C 
ENDROOT
BRANCH   1   7
ATOM      7  O   LIG d   1      -6.039  93.233 120.029  0.00  0.00    -0.368 OA
BRANCH   7   8
ATOM      8  C   LIG d   1      -6.155  94.546 120.630  0.00  0.00     0.119 C 
BRANCH   8   9
ATOM      9  C   LIG d   1      -5.488  94.481 122.018  0.00  0.00     0.028 C 
ATOM     10  C   LIG d   1      -5.201  93.037 122.464  0.00  0.00     0.006 C 
ENDBRANCH   8   9
BRANCH   8  11
ATOM     11  C   LIG d   1      -7.618  94.908 120.900  0.00  0.00     0.028 C 
ATOM     12  C   LIG d   1      -8.406  95.199 119.613  0.00  0.00     0.006 C 
ENDBRANCH   8  11
ENDBRANCH   7   8
ENDBRANCH   1   7
BRANCH   6  13
ATOM     13  N   LIG d   1      -3.110  93.600 119.422  0.00  0.00    -0.311 N 
ATOM     14  C   LIG d   1      -2.148  93.321 120.300  0.00  0.00     0.210 C 
ATOM     15  C   LIG d   1      -1.354  94.534 120.796  0.00  0.00     0.109 C 
ATOM     16  O   LIG d   1      -1.856  92.181 120.691  0.00  0.00    -0.276 OA
ATOM     17  H   LIG d   1      -3.256  94.549 119.135  0.00  0.00     0.149 HD
ENDBRANCH   6  13
BRANCH   5  18
ATOM     18  N   LIG d   1      -2.204  91.365 117.546  0.00  0.00     0.381 N 
ATOM     19  H   LIG d   1      -2.351  90.402 117.771  0.00  0.00    -0.090 HD
ATOM     20  H   LIG d   1      -1.657  91.781 118.280  0.00  0.00    -0.090 HD
ATOM     21  H   LIG d   1      -1.720  91.441 116.678  0.00  0.00    -0.090 HD
ENDBRANCH   5  18
BRANCH   3  22
ATOM     22  C   LIG d   1      -6.692  91.135 115.891  0.00  0.00     0.382 C 
ATOM     23  O   LIG d   1      -7.616  91.881 115.485  0.00  0.00    -0.241 OA
ATOM     24  O   LIG d   1      -6.587  89.983 115.430  0.00  0.00    -0.241 OA
ENDBRANCH   3  22
TORSDOF 7
ENDMDL
MODEL 4
REMARK VINA RESULT:      -4.7      2.384      4.593
REMARK  7 active torsions:
REMARK  status: ('A' for Active; 'I' for Inactive)
REMARK    1  A    between atoms: C_2  and  C_3 
REMARK    2  A    between atoms: C_3  and  O_6 
REMARK    3  A    between atoms: C_3  and  C_4 
REMARK    4  A    between atoms: C_7  and  O_6 
REMARK    5  A    between atoms: C_9  and  C_10 
REMARK    6  A    between atoms: N_15  and  C_14 
REMARK    7  A    between atoms: N_20  and  C_19 
REMARK       I    between atoms: C_22  and  N_20 
ROOT
ATOM      1  C   LIG d   1      -5.284  93.299 119.330  0.00  0.00     0.161 C 
ATOM      2  C   LIG d   1      -4.711  92.339 118.479  0.00  0.00     0.016 C 
ATOM      3  C   LIG d   1      -5.356  91.839 117.325  0.00  0.00     0.038 C 
ATOM      4  C   LIG d   1      -6.562  92.379 116.856  0.00  0.00     0.028 C 
ATOM      5  C   LIG d   1      -7.418  92.995 117.958  0.00  0.00    -0.047 C 
ATOM      6  C   LIG d   1      -6.552  93.981 118.774  0.00  0.00     0.091 C 
ENDROOT
BRANCH   1   7
ATOM      7  O   LIG d   1      -4.298  94.288 119.685  0.00  0.00    -0.368 OA
BRANCH   7   8
ATOM      8  C   LIG d   1      -2.913  93.895 119.521  0.00  0.00     0.119 C 
BRANCH   8   9
ATOM      9  C   LIG d   1      -2.246  93.960 120.908  0.00  0.00     0.028 C 
ATOM     10  C   LIG d   1      -1.511  92.658 121.268  0.00  0.00     0.006 C 
ENDBRANCH   8   9
BRANCH   8  11
ATOM     11  C   LIG d   1      -2.148  94.900 118.655  0.00  0.00     0.028 C 
ATOM     12  C   LIG d   1      -1.370  94.230 117.512  0.00  0.00     0.006 C 
ENDBRANCH   8  11
ENDBRANCH   7   8
ENDBRANCH   1   7
BRANCH   6  13
ATOM     13  N   LIG d   1      -7.289  94.565 119.924  0.00  0.00    -0.311 N 
ATOM     14  C   LIG d   1      -7.948  95.722 119.862  0.00  0.00     0.210 C 
ATOM     15  C   LIG d   1      -8.624  96.152 121.168  0.00  0.00     0.109 C 
ATOM     16  O   LIG d   1      -8.064  96.416 118.841  0.00  0.00    -0.276 OA
ATOM     17  H   LIG d   1      -7.274  94.052 120.784  0.00  0.00     0.149 HD
ENDBRANCH   6  13
BRANCH   5  18
ATOM     18  N   LIG d   1      -8.577  93.641 117.313  0.00  0.00     0.381 N 
ATOM     19  H   LIG d   1      -9.394  93.512 117.876  0.00  0.00    -0.090 HD
ATOM     20  H   LIG d   1      -8.737  93.207 116.421  0.00  0.00    -0.090 HD
ATOM     21  H   LIG d   1      -8.401  94.614 117.190  0.00  0.00    -0.090 HD
ENDBRANCH   5  18
BRANCH   3  22
ATOM     22  C   LIG d   1      -4.811  90.758 116.648  0.00  0.00     0.382 C 
ATOM     23  O   LIG d   1      -5.384  90.304 115.628  0.00  0.00    -0.241 OA
ATOM     24  O   LIG d   1      -3.778  90.204 117.069  0.00  0.00    -0.241 OA
ENDBRANCH   3  22
TORSDOF 7
ENDMDL
MODEL 5
REMARK VINA RESULT:      -4.6      2.678      4.535
REMARK  7 active torsions:
REMARK  status: ('A' for Active; 'I' for Inactive)
REMARK    1  A    between atoms: C_2  and  C_3 
REMARK    2  A    between atoms: C_3  and  O_6 
REMARK    3  A    between atoms: C_3  and  C_4 
REMARK    4  A    between atoms: C_7  and  O_6 
REMARK    5  A    between atoms: C_9  and  C_10 
REMARK    6  A    between atoms: N_15  and  C_14 
REMARK    7  A    between atoms: N_20  and  C_19 
REMARK       I    between atoms: C_22  and  N_20 
ROOT
ATOM      1  C   LIG d   1      -5.247  93.376 119.377  0.00  0.00     0.161 C 
ATOM      2  C   LIG d   1      -4.210  92.506 119.004  0.00  0.00     0.016 C 
ATOM      3  C   LIG d   1      -4.256  91.690 117.850  0.00  0.00     0.038 C 
ATOM      4  C   LIG d   1      -5.285  91.802 116.903  0.00  0.00     0.028 C 
ATOM      5  C   LIG d   1      -6.599  92.302 117.494  0.00  0.00    -0.047 C 
ATOM      6  C   LIG d   1      -6.329  93.594 118.298  0.00  0.00     0.091 C 
ENDROOT
BRANCH   1   7
ATOM      7  O   LIG d   1      -4.697  94.640 119.798  0.00  0.00    -0.368 OA
BRANCH   7   8
ATOM      8  C   LIG d   1      -3.265  94.671 120.015  0.00  0.00     0.119 C 
BRANCH   8   9
ATOM      9  C   LIG d   1      -3.025  95.180 121.450  0.00  0.00     0.028 C 
ATOM     10  C   LIG d   1      -1.955  96.282 121.510  0.00  0.00     0.006 C 
ENDBRANCH   8   9
BRANCH   8  11
ATOM     11  C   LIG d   1      -2.585  95.696 119.102  0.00  0.00     0.028 C 
ATOM     12  C   LIG d   1      -1.721  95.043 118.012  0.00  0.00     0.006 C 
ENDBRANCH   8  11
ENDBRANCH   7   8
ENDBRANCH   1   7
BRANCH   6  13
ATOM     13  N   LIG d   1      -7.547  94.103 118.980  0.00  0.00    -0.311 N 
ATOM     14  C   LIG d   1      -8.005  95.345 118.832  0.00  0.00     0.210 C 
ATOM     15  C   LIG d   1      -9.265  95.670 119.640  0.00  0.00     0.109 C 
ATOM     16  O   LIG d   1      -7.505  96.199 118.084  0.00  0.00    -0.276 OA
ATOM     17  H   LIG d   1      -8.033  93.467 119.582  0.00  0.00     0.149 HD
ENDBRANCH   6  13
BRANCH   5  18
ATOM     18  N   LIG d   1      -7.541  92.503 116.377  0.00  0.00     0.381 N 
ATOM     19  H   LIG d   1      -7.117  93.076 115.675  0.00  0.00    -0.090 HD
ATOM     20  H   LIG d   1      -8.357  92.979 116.721  0.00  0.00    -0.090 HD
ATOM     21  H   LIG d   1      -7.801  91.624 115.987  0.00  0.00    -0.090 HD
ENDBRANCH   5  18
BRANCH   3  22
ATOM     22  C   LIG d   1      -3.284  90.721 117.654  0.00  0.00     0.382 C 
ATOM     23  O   LIG d   1      -2.081  91.056 117.531  0.00  0.00    -0.241 OA
ATOM     24  O   LIG d   1      -3.600  89.520 117.554  0.00  0.00    -0.241 OA
ENDBRANCH   3  22
TORSDOF 7
ENDMDL
MODEL 6
REMARK VINA RESULT:      -4.4      1.535      2.113
REMARK  7 active torsions:
REMARK  status: ('A' for Active; 'I' for Inactive)
REMARK    1  A    between atoms: C_2  and  C_3 
REMARK    2  A    between atoms: C_3  and  O_6 
REMARK    3  A    between atoms: C_3  and  C_4 
REMARK    4  A    between atoms: C_7  and  O_6 
REMARK    5  A    between atoms: C_9  and  C_10 
REMARK    6  A    between atoms: N_15  and  C_14 
REMARK    7  A    between atoms: N_20  and  C_19 
REMARK       I    between atoms: C_22  and  N_20 
ROOT
ATOM      1  C   LIG d   1      -4.686  93.009 119.484  0.00  0.00     0.161 C 
ATOM      2  C   LIG d   1      -5.850  93.007 118.697  0.00  0.00     0.016 C 
ATOM      3  C   LIG d   1      -5.961  92.305 117.474  0.00  0.00     0.038 C 
ATOM      4  C   LIG d   1      -4.959  91.430 117.028  0.00  0.00     0.028 C 
ATOM      5  C   LIG d   1      -3.568  91.793 117.535  0.00  0.00    -0.047 C 
ATOM      6  C   LIG d   1      -3.623  91.970 119.069  0.00  0.00     0.091 C 
ENDROOT
BRANCH   1   7
ATOM      7  O   LIG d   1      -5.035  92.841 120.872  0.00  0.00    -0.368 OA
BRANCH   7   8
ATOM      8  C   LIG d   1      -4.890  94.013 121.712  0.00  0.00     0.119 C 
BRANCH   8   9
ATOM      9  C   LIG d   1      -6.299  94.585 121.957  0.00  0.00     0.028 C 
ATOM     10  C   LIG d   1      -6.479  95.984 121.344  0.00  0.00     0.006 C 
ENDBRANCH   8   9
BRANCH   8  11
ATOM     11  C   LIG d   1      -4.121  95.123 120.991  0.00  0.00     0.028 C 
ATOM     12  C   LIG d   1      -2.736  95.386 121.605  0.00  0.00     0.006 C 
ENDBRANCH   8  11
ENDBRANCH   7   8
ENDBRANCH   1   7
BRANCH   6  13
ATOM     13  N   LIG d   1      -2.321  92.409 119.637  0.00  0.00    -0.311 N 
ATOM     14  C   LIG d   1      -1.421  91.567 120.142  0.00  0.00     0.210 C 
ATOM     15  C   LIG d   1      -0.154  92.230 120.693  0.00  0.00     0.109 C 
ATOM     16  O   LIG d   1      -1.537  90.333 120.157  0.00  0.00    -0.276 OA
ATOM     17  H   LIG d   1      -2.131  93.392 119.636  0.00  0.00     0.149 HD
ENDBRANCH   6  13
BRANCH   5  18
ATOM     18  N   LIG d   1      -2.645  90.724 117.109  0.00  0.00     0.381 N 
ATOM     19  H   LIG d   1      -1.989  90.532 117.839  0.00  0.00    -0.090 HD
ATOM     20  H   LIG d   1      -2.136  91.036 116.301  0.00  0.00    -0.090 HD
ATOM     21  H   LIG d   1      -3.158  89.899 116.889  0.00  0.00    -0.090 HD
ENDBRANCH   5  18
BRANCH   3  22
ATOM     22  C   LIG d   1      -7.068  92.508 116.664  0.00  0.00     0.382 C 
ATOM     23  O   LIG d   1      -8.108  93.021 117.141  0.00  0.00    -0.241 OA
ATOM     24  O   LIG d   1      -7.054  92.143 115.473  0.00  0.00    -0.241 OA
ENDBRANCH   3  22
TORSDOF 7
ENDMDL
MODEL 7
REMARK VINA RESULT:      -4.2      4.734      7.917
REMARK  7 active torsions:
REMARK  status: ('A' for Active; 'I' for Inactive)
REMARK    1  A    between atoms: C_2  and  C_3 
REMARK    2  A    between atoms: C_3  and  O_6 
REMARK    3  A    between atoms: C_3  and  C_4 
REMARK    4  A    between atoms: C_7  and  O_6 
REMARK    5  A    between atoms: C_9  and  C_10 
REMARK    6  A    between atoms: N_15  and  C_14 
REMARK    7  A    between atoms: N_20  and  C_19 
REMARK       I    between atoms: C_22  and  N_20 
ROOT
ATOM      1  C   LIG d   1       0.296  91.452 117.118  0.00  0.00     0.161 C 
ATOM      2  C   LIG d   1       1.646  91.797 117.300  0.00  0.00     0.016 C 
ATOM      3  C   LIG d   1       2.068  92.912 118.060  0.00  0.00     0.038 C 
ATOM      4  C   LIG d   1       1.168  93.677 118.818  0.00  0.00     0.028 C 
ATOM      5  C   LIG d   1      -0.251  93.671 118.260  0.00  0.00    -0.047 C 
ATOM      6  C   LIG d   1      -0.694  92.209 118.028  0.00  0.00     0.091 C 
ENDROOT
BRANCH   1   7
ATOM      7  O   LIG d   1       0.131  90.029 117.272  0.00  0.00    -0.368 OA
BRANCH   7   8
ATOM      8  C   LIG d   1       0.354  89.501 118.602  0.00  0.00     0.119 C 
BRANCH   8   9
ATOM      9  C   LIG d   1       1.413  88.387 118.487  0.00  0.00     0.028 C 
ATOM     10  C   LIG d   1       1.582  87.885 117.043  0.00  0.00     0.006 C 
ENDBRANCH   8   9
BRANCH   8  11
ATOM     11  C   LIG d   1      -0.901  88.812 119.147  0.00  0.00     0.028 C 
ATOM     12  C   LIG d   1      -1.969  88.579 118.066  0.00  0.00     0.006 C 
ENDBRANCH   8  11
ENDBRANCH   7   8
ENDBRANCH   1   7
BRANCH   6  13
ATOM     13  N   LIG d   1      -2.039  92.116 117.405  0.00  0.00    -0.311 N 
ATOM     14  C   LIG d   1      -3.161  91.953 118.104  0.00  0.00     0.210 C 
ATOM     15  C   LIG d   1      -4.439  91.861 117.263  0.00  0.00     0.109 C 
ATOM     16  O   LIG d   1      -3.223  91.907 119.342  0.00  0.00    -0.276 OA
ATOM     17  H   LIG d   1      -2.085  92.174 116.406  0.00  0.00     0.149 HD
ENDBRANCH   6  13
BRANCH   5  18
ATOM     18  N   LIG d   1      -1.110  94.390 119.220  0.00  0.00     0.381 N 
ATOM     19  H   LIG d   1      -1.972  93.897 119.339  0.00  0.00    -0.090 HD
ATOM     20  H   LIG d   1      -1.316  95.302 118.852  0.00  0.00    -0.090 HD
ATOM     21  H   LIG d   1      -0.644  94.476 120.097  0.00  0.00    -0.090 HD
ENDBRANCH   5  18
BRANCH   3  22
ATOM     22  C   LIG d   1       3.400  93.297 118.033  0.00  0.00     0.382 C 
ATOM     23  O   LIG d   1       3.977  93.632 119.096  0.00  0.00    -0.241 OA
ATOM     24  O   LIG d   1       4.019  93.357 116.954  0.00  0.00    -0.241 OA
ENDBRANCH   3  22
TORSDOF 7
ENDMDL
MODEL 8
REMARK VINA RESULT:      -4.1      2.181      4.408
REMARK  7 active torsions:
REMARK  status: ('A' for Active; 'I' for Inactive)
REMARK    1  A    between atoms: C_2  and  C_3 
REMARK    2  A    between atoms: C_3  and  O_6 
REMARK    3  A    between atoms: C_3  and  C_4 
REMARK    4  A    between atoms: C_7  and  O_6 
REMARK    5  A    between atoms: C_9  and  C_10 
REMARK    6  A    between atoms: N_15  and  C_14 
REMARK    7  A    between atoms: N_20  and  C_19 
REMARK       I    between atoms: C_22  and  N_20 
ROOT
ATOM      1  C   LIG d   1      -3.816  92.023 118.135  0.00  0.00     0.161 C 
ATOM      2  C   LIG d   1      -4.536  91.477 117.059  0.00  0.00     0.016 C 
ATOM      3  C   LIG d   1      -5.899  91.759 116.813  0.00  0.00     0.038 C 
ATOM      4  C   LIG d   1      -6.599  92.731 117.543  0.00  0.00     0.028 C 
ATOM      5  C   LIG d   1      -6.058  92.935 118.954  0.00  0.00    -0.047 C 
ATOM      6  C   LIG d   1      -4.532  93.170 118.877  0.00  0.00     0.091 C 
ENDROOT
BRANCH   1   7
ATOM      7  O   LIG d   1      -2.516  92.451 117.686  0.00  0.00    -0.368 OA
BRANCH   7   8
ATOM      8  C   LIG d   1      -1.380  91.785 118.291  0.00  0.00     0.119 C 
BRANCH   8   9
ATOM      9  C   LIG d   1      -0.167  92.725 118.159  0.00  0.00     0.028 C 
ATOM     10  C   LIG d   1       0.595  92.890 119.484  0.00  0.00     0.006 C 
ENDBRANCH   8   9
BRANCH   8  11
ATOM     11  C   LIG d   1      -0.999  90.520 117.516  0.00  0.00     0.028 C 
ATOM     12  C   LIG d   1      -1.216  89.234 118.330  0.00  0.00     0.006 C 
ENDBRANCH   8  11
ENDBRANCH   7   8
ENDBRANCH   1   7
BRANCH   6  13
ATOM     13  N   LIG d   1      -3.910  93.295 120.221  0.00  0.00    -0.311 N 
ATOM     14  C   LIG d   1      -3.035  94.248 120.538  0.00  0.00     0.210 C 
ATOM     15  C   LIG d   1      -2.499  94.183 121.971  0.00  0.00     0.109 C 
ATOM     16  O   LIG d   1      -2.676  95.160 119.777  0.00  0.00    -0.276 OA
ATOM     17  H   LIG d   1      -4.168  92.615 120.908  0.00  0.00     0.149 HD
ENDBRANCH   6  13
BRANCH   5  18
ATOM     18  N   LIG d   1      -6.789  94.068 119.553  0.00  0.00     0.381 N 
ATOM     19  H   LIG d   1      -7.261  93.767 120.382  0.00  0.00    -0.090 HD
ATOM     20  H   LIG d   1      -7.478  94.393 118.897  0.00  0.00    -0.090 HD
ATOM     21  H   LIG d   1      -6.155  94.805 119.772  0.00  0.00    -0.090 HD
ENDBRANCH   5  18
BRANCH   3  22
ATOM     22  C   LIG d   1      -6.588  91.036 115.851  0.00  0.00     0.382 C 
ATOM     23  O   LIG d   1      -7.696  91.448 115.430  0.00  0.00    -0.241 OA
ATOM     24  O   LIG d   1      -6.136  89.954 115.430  0.00  0.00    -0.241 OA
ENDBRANCH   3  22
TORSDOF 7
ENDMDL
MODEL 9
REMARK VINA RESULT:      -4.0      2.703      4.207
REMARK  7 active torsions:
REMARK  status: ('A' for Active; 'I' for Inactive)
REMARK    1  A    between atoms: C_2  and  C_3 
REMARK    2  A    between atoms: C_3  and  O_6 
REMARK    3  A    between atoms: C_3  and  C_4 
REMARK    4  A    between atoms: C_7  and  O_6 
REMARK    5  A    between atoms: C_9  and  C_10 
REMARK    6  A    between atoms: N_15  and  C_14 
REMARK    7  A    between atoms: N_20  and  C_19 
REMARK       I    between atoms: C_22  and  N_20 
ROOT
ATOM      1  C   LIG d   1      -1.858  92.687 118.095  0.00  0.00     0.161 C 
ATOM      2  C   LIG d   1      -3.195  92.560 117.683  0.00  0.00     0.016 C 
ATOM      3  C   LIG d   1      -3.809  91.318 117.407  0.00  0.00     0.038 C 
ATOM      4  C   LIG d   1      -3.168  90.098 117.671  0.00  0.00     0.028 C 
ATOM      5  C   LIG d   1      -1.647  90.188 117.607  0.00  0.00    -0.047 C 
ATOM      6  C   LIG d   1      -1.176  91.362 118.495  0.00  0.00     0.091 C 
ENDROOT
BRANCH   1   7
ATOM      7  O   LIG d   1      -1.766  93.643 119.170  0.00  0.00    -0.368 OA
BRANCH   7   8
ATOM      8  C   LIG d   1      -1.483  95.011 118.785  0.00  0.00     0.119 C 
BRANCH   8   9
ATOM      9  C   LIG d   1       0.041  95.215 118.885  0.00  0.00     0.028 C 
ATOM     10  C   LIG d   1       0.525  95.313 120.341  0.00  0.00     0.006 C 
ENDBRANCH   8   9
BRANCH   8  11
ATOM     11  C   LIG d   1      -2.092  96.006 119.777  0.00  0.00     0.028 C 
ATOM     12  C   LIG d   1      -3.627  96.045 119.716  0.00  0.00     0.006 C 
ENDBRANCH   8  11
ENDBRANCH   7   8
ENDBRANCH   1   7
BRANCH   6  13
ATOM     13  N   LIG d   1       0.294  91.573 118.423  0.00  0.00    -0.311 N 
ATOM     14  C   LIG d   1       1.074  91.672 119.498  0.00  0.00     0.210 C 
ATOM     15  C   LIG d   1       2.558  91.908 119.201  0.00  0.00     0.109 C 
ATOM     16  O   LIG d   1       0.682  91.554 120.669  0.00  0.00    -0.276 OA
ATOM     17  H   LIG d   1       0.700  91.649 117.511  0.00  0.00     0.149 HD
ENDBRANCH   6  13
BRANCH   5  18
ATOM     18  N   LIG d   1      -1.105  88.885 118.036  0.00  0.00     0.381 N 
ATOM     19  H   LIG d   1      -1.593  88.566 118.849  0.00  0.00    -0.090 HD
ATOM     20  H   LIG d   1      -0.136  88.998 118.275  0.00  0.00    -0.090 HD
ATOM     21  H   LIG d   1      -1.198  88.218 117.302  0.00  0.00    -0.090 HD
ENDBRANCH   5  18
BRANCH   3  22
ATOM     22  C   LIG d   1      -5.067  91.287 116.823  0.00  0.00     0.382 C 
ATOM     23  O   LIG d   1      -5.928  92.141 117.145  0.00  0.00    -0.241 OA
ATOM     24  O   LIG d   1      -5.364  90.391 116.011  0.00  0.00    -0.241 OA
ENDBRANCH   3  22
TORSDOF 7
ENDMDL
