MODEL 1
REMARK VINA RESULT:      -4.9      0.000      0.000
REMARK  7 active torsions:
REMARK  status: ('A' for Active; 'I' for Inactive)
REMARK    1  A    between atoms: C_2  and  C_3 
REMARK    2  A    between atoms: C_3  and  O_6 
REMARK    3  A    between atoms: C_3  and  C_4 
REMARK    4  A    between atoms: C_7  and  O_6 
REMARK    5  A    between atoms: C_9  and  C_10 
REMARK    6  A    between atoms: N_15  and  C_14 
REMARK    7  A    between atoms: N_20  and  C_19 
REMARK       I    between atoms: C_22  and  N_20 
ROOT
ATOM      1  C   LIG d   1      -4.882  93.270 119.005  0.00  0.00     0.161 C 
ATOM      2  C   LIG d   1      -6.094  93.979 118.951  0.00  0.00     0.016 C 
ATOM      3  C   LIG d   1      -7.074  93.769 117.953  0.00  0.00     0.038 C 
ATOM      4  C   LIG d   1      -6.973  92.724 117.023  0.00  0.00     0.028 C 
ATOM      5  C   LIG d   1      -5.535  92.311 116.729  0.00  0.00    -0.047 C 
ATOM      6  C   LIG d   1      -4.804  92.049 118.065  0.00  0.00     0.091 C 
ENDROOT
BRANCH   1   7
ATOM      7  O   LIG d   1      -4.608  92.874 120.364  0.00  0.00    -0.368 OA
BRANCH   7   8
ATOM      8  C   LIG d   1      -3.455  93.491 120.987  0.00  0.00     0.119 C 
BRANCH   8   9
ATOM      9  C   LIG d   1      -2.894  94.530 119.997  0.00  0.00     0.028 C 
ATOM     10  C   LIG d   1      -1.408  94.295 119.679  0.00  0.00     0.006 C 
ENDBRANCH   8   9
BRANCH   8  11
ATOM     11  C   LIG d   1      -2.325  92.478 121.195  0.00  0.00     0.028 C 
ATOM     12  C   LIG d   1      -2.842  91.072 121.538  0.00  0.00     0.006 C 
ENDBRANCH   8  11
ENDBRANCH   7   8
ENDBRANCH   1   7
BRANCH   6  13
ATOM     13  N   LIG d   1      -3.368  91.721 117.871  0.00  0.00    -0.311 N 
ATOM     14  C   LIG d   1      -2.901  90.475 117.814  0.00  0.00     0.210 C 
ATOM     15  C   LIG d   1      -1.385  90.360 117.628  0.00  0.00     0.109 C 
ATOM     16  O   LIG d   1      -3.603  89.454 117.867  0.00  0.00    -0.276 OA
ATOM     17  H   LIG d   1      -2.732  92.490 117.788  0.00  0.00     0.149 HD
ENDBRANCH   6  13
BRANCH   5  18
ATOM     18  N   LIG d   1      -5.582  91.125 115.853  0.00  0.00     0.381 N 
ATOM     19  H   LIG d   1      -6.167  90.424 116.263  0.00  0.00    -0.090 HD
ATOM     20  H   LIG d   1      -4.655  90.749 115.764  0.00  0.00    -0.090 HD
ATOM     21  H   LIG d   1      -5.934  91.377 114.956  0.00  0.00    -0.090 HD
ENDBRANCH   5  18
BRANCH   3  22
ATOM     22  C   LIG d   1      -8.150  94.637 117.854  0.00  0.00     0.382 C 
ATOM     23  O   LIG d   1      -7.954  95.875 117.789  0.00  0.00    -0.241 OA
ATOM     24  O   LIG d   1      -9.317  94.202 117.874  0.00  0.00    -0.241 OA
ENDBRANCH   3  22
TORSDOF 7
ENDMDL
MODEL 2
REMARK VINA RESULT:      -4.8      2.630      4.913
REMARK  7 active torsions:
REMARK  status: ('A' for Active; 'I' for Inactive)
REMARK    1  A    between atoms: C_2  and  C_3 
REMARK    2  A    between atoms: C_3  and  O_6 
REMARK    3  A    between atoms: C_3  and  C_4 
REMARK    4  A    between atoms: C_7  and  O_6 
REMARK    5  A    between atoms: C_9  and  C_10 
REMARK    6  A    between atoms: N_15  and  C_14 
REMARK    7  A    between atoms: N_20  and  C_19 
REMARK       I    between atoms: C_22  and  N_20 
ROOT
ATOM      1  C   LIG d   1      -5.658  93.663 119.325  0.00  0.00     0.161 C 
ATOM      2  C   LIG d   1      -5.439  92.625 118.404  0.00  0.00     0.016 C 
ATOM      3  C   LIG d   1      -6.262  92.398 117.277  0.00  0.00     0.038 C 
ATOM      4  C   LIG d   1      -7.279  93.293 116.909  0.00  0.00     0.028 C 
ATOM      5  C   LIG d   1      -7.855  94.072 118.087  0.00  0.00    -0.047 C 
ATOM      6  C   LIG d   1      -6.694  94.715 118.879  0.00  0.00     0.091 C 
ENDROOT
BRANCH   1   7
ATOM      7  O   LIG d   1      -4.406  94.299 119.650  0.00  0.00    -0.368 OA
BRANCH   7   8
ATOM      8  C   LIG d   1      -3.216  93.689 119.092  0.00  0.00     0.119 C 
BRANCH   8   9
ATOM      9  C   LIG d   1      -2.387  93.133 120.265  0.00  0.00     0.028 C 
ATOM     10  C   LIG d   1      -2.320  91.596 120.260  0.00  0.00     0.006 C 
ENDBRANCH   8   9
BRANCH   8  11
ATOM     11  C   LIG d   1      -2.318  94.731 118.419  0.00  0.00     0.028 C 
ATOM     12  C   LIG d   1      -1.289  94.104 117.465  0.00  0.00     0.006 C 
ENDBRANCH   8  11
ENDBRANCH   7   8
ENDBRANCH   1   7
BRANCH   6  13
ATOM     13  N   LIG d   1      -7.165  95.427 120.096  0.00  0.00    -0.311 N 
ATOM     14  C   LIG d   1      -7.541  96.704 120.099  0.00  0.00     0.210 C 
ATOM     15  C   LIG d   1      -7.973  97.248 121.465  0.00  0.00     0.109 C 
ATOM     16  O   LIG d   1      -7.590  97.430 119.095  0.00  0.00    -0.276 OA
ATOM     17  H   LIG d   1      -7.187  94.904 120.950  0.00  0.00     0.149 HD
ENDBRANCH   6  13
BRANCH   5  18
ATOM     18  N   LIG d   1      -8.804  95.062 117.544  0.00  0.00     0.381 N 
ATOM     19  H   LIG d   1      -8.308  95.879 117.247  0.00  0.00    -0.090 HD
ATOM     20  H   LIG d   1      -9.446  95.329 118.270  0.00  0.00    -0.090 HD
ATOM     21  H   LIG d   1      -9.303  94.671 116.776  0.00  0.00    -0.090 HD
ENDBRANCH   5  18
BRANCH   3  22
ATOM     22  C   LIG d   1      -6.098  91.244 116.527  0.00  0.00     0.382 C 
ATOM     23  O   LIG d   1      -7.056  90.446 116.386  0.00  0.00    -0.241 OA
ATOM     24  O   LIG d   1      -4.991  90.968 116.026  0.00  0.00    -0.241 OA
ENDBRANCH   3  22
TORSDOF 7
ENDMDL
MODEL 3
REMARK VINA RESULT:      -4.5      2.361      4.220
REMARK  7 active torsions:
REMARK  status: ('A' for Active; 'I' for Inactive)
REMARK    1  A    between atoms: C_2  and  C_3 
REMARK    2  A    between atoms: C_3  and  O_6 
REMARK    3  A    between atoms: C_3  and  C_4 
REMARK    4  A    between atoms: C_7  and  O_6 
REMARK    5  A    between atoms: C_9  and  C_10 
REMARK    6  A    between atoms: N_15  and  C_14 
REMARK    7  A    between atoms: N_20  and  C_19 
REMARK       I    between atoms: C_22  and  N_20 
ROOT
ATOM      1  C   LIG d   1      -5.103  93.538 119.207  0.00  0.00     0.161 C 
ATOM      2  C   LIG d   1      -6.470  93.514 118.885  0.00  0.00     0.016 C 
ATOM      3  C   LIG d   1      -7.331  94.623 119.059  0.00  0.00     0.038 C 
ATOM      4  C   LIG d   1      -6.846  95.886 119.429  0.00  0.00     0.028 C 
ATOM      5  C   LIG d   1      -5.561  95.826 120.248  0.00  0.00    -0.047 C 
ATOM      6  C   LIG d   1      -4.534  94.941 119.507  0.00  0.00     0.091 C 
ENDROOT
BRANCH   1   7
ATOM      7  O   LIG d   1      -4.343  92.902 118.161  0.00  0.00    -0.368 OA
BRANCH   7   8
ATOM      8  C   LIG d   1      -4.413  91.456 118.112  0.00  0.00     0.119 C 
BRANCH   8   9
ATOM      9  C   LIG d   1      -3.068  90.910 118.628  0.00  0.00     0.028 C 
ATOM     10  C   LIG d   1      -2.843  89.438 118.240  0.00  0.00     0.006 C 
ENDBRANCH   8   9
BRANCH   8  11
ATOM     11  C   LIG d   1      -4.528  90.952 116.670  0.00  0.00     0.028 C 
ATOM     12  C   LIG d   1      -5.901  91.245 116.045  0.00  0.00     0.006 C 
ENDBRANCH   8  11
ENDBRANCH   7   8
ENDBRANCH   1   7
BRANCH   6  13
ATOM     13  N   LIG d   1      -3.278  94.760 120.281  0.00  0.00    -0.311 N 
ATOM     14  C   LIG d   1      -2.065  94.949 119.764  0.00  0.00     0.210 C 
ATOM     15  C   LIG d   1      -0.904  94.690 120.729  0.00  0.00     0.109 C 
ATOM     16  O   LIG d   1      -1.842  95.338 118.608  0.00  0.00    -0.276 OA
ATOM     17  H   LIG d   1      -3.368  94.476 121.236  0.00  0.00     0.149 HD
ENDBRANCH   6  13
BRANCH   5  18
ATOM     18  N   LIG d   1      -5.094  97.211 120.446  0.00  0.00     0.381 N 
ATOM     19  H   LIG d   1      -4.549  97.501 119.659  0.00  0.00    -0.090 HD
ATOM     20  H   LIG d   1      -4.510  97.244 121.263  0.00  0.00    -0.090 HD
ATOM     21  H   LIG d   1      -5.874  97.821 120.562  0.00  0.00    -0.090 HD
ENDBRANCH   5  18
BRANCH   3  22
ATOM     22  C   LIG d   1      -8.699  94.463 118.901  0.00  0.00     0.382 C 
ATOM     23  O   LIG d   1      -9.186  94.330 117.753  0.00  0.00    -0.241 OA
ATOM     24  O   LIG d   1      -9.457  94.493 119.889  0.00  0.00    -0.241 OA
ENDBRANCH   3  22
TORSDOF 7
ENDMDL
MODEL 4
REMARK VINA RESULT:      -4.5      2.423      3.442
REMARK  7 active torsions:
REMARK  status: ('A' for Active; 'I' for Inactive)
REMARK    1  A    between atoms: C_2  and  C_3 
REMARK    2  A    between atoms: C_3  and  O_6 
REMARK    3  A    between atoms: C_3  and  C_4 
REMARK    4  A    between atoms: C_7  and  O_6 
REMARK    5  A    between atoms: C_9  and  C_10 
REMARK    6  A    between atoms: N_15  and  C_14 
REMARK    7  A    between atoms: N_20  and  C_19 
REMARK       I    between atoms: C_22  and  N_20 
ROOT
ATOM      1  C   LIG d   1      -4.560  93.136 118.829  0.00  0.00     0.161 C 
ATOM      2  C   LIG d   1      -5.654  92.689 118.069  0.00  0.00     0.016 C 
ATOM      3  C   LIG d   1      -5.558  91.673 117.090  0.00  0.00     0.038 C 
ATOM      4  C   LIG d   1      -4.386  90.925 116.911  0.00  0.00     0.028 C 
ATOM      5  C   LIG d   1      -3.119  91.679 117.302  0.00  0.00    -0.047 C 
ATOM      6  C   LIG d   1      -3.297  92.254 118.725  0.00  0.00     0.091 C 
ENDROOT
BRANCH   1   7
ATOM      7  O   LIG d   1      -4.953  93.289 120.207  0.00  0.00    -0.368 OA
BRANCH   7   8
ATOM      8  C   LIG d   1      -6.161  94.052 120.445  0.00  0.00     0.119 C 
BRANCH   8   9
ATOM      9  C   LIG d   1      -5.765  95.540 120.500  0.00  0.00     0.028 C 
ATOM     10  C   LIG d   1      -6.605  96.406 119.546  0.00  0.00     0.006 C 
ENDBRANCH   8   9
BRANCH   8  11
ATOM     11  C   LIG d   1      -6.756  93.739 121.821  0.00  0.00     0.028 C 
ATOM     12  C   LIG d   1      -6.171  92.463 122.447  0.00  0.00     0.006 C 
ENDBRANCH   8  11
ENDBRANCH   7   8
ENDBRANCH   1   7
BRANCH   6  13
ATOM     13  N   LIG d   1      -2.137  93.079 119.153  0.00  0.00    -0.311 N 
ATOM     14  C   LIG d   1      -1.107  92.592 119.842  0.00  0.00     0.210 C 
ATOM     15  C   LIG d   1      -0.026  93.617 120.199  0.00  0.00     0.109 C 
ATOM     16  O   LIG d   1      -0.970  91.403 120.164  0.00  0.00    -0.276 OA
ATOM     17  H   LIG d   1      -2.151  94.049 118.906  0.00  0.00     0.149 HD
ENDBRANCH   6  13
BRANCH   5  18
ATOM     18  N   LIG d   1      -1.989  90.737 117.196  0.00  0.00     0.381 N 
ATOM     19  H   LIG d   1      -2.333  89.809 117.051  0.00  0.00    -0.090 HD
ATOM     20  H   LIG d   1      -1.473  90.751 118.058  0.00  0.00    -0.090 HD
ATOM     21  H   LIG d   1      -1.395  91.001 116.441  0.00  0.00    -0.090 HD
ENDBRANCH   5  18
BRANCH   3  22
ATOM     22  C   LIG d   1      -6.634  91.424 116.251  0.00  0.00     0.382 C 
ATOM     23  O   LIG d   1      -7.103  92.348 115.543  0.00  0.00    -0.241 OA
ATOM     24  O   LIG d   1      -7.168  90.300 116.226  0.00  0.00    -0.241 OA
ENDBRANCH   3  22
TORSDOF 7
ENDMDL
MODEL 5
REMARK VINA RESULT:      -4.4      2.462      4.261
REMARK  7 active torsions:
REMARK  status: ('A' for Active; 'I' for Inactive)
REMARK    1  A    between atoms: C_2  and  C_3 
REMARK    2  A    between atoms: C_3  and  O_6 
REMARK    3  A    between atoms: C_3  and  C_4 
REMARK    4  A    between atoms: C_7  and  O_6 
REMARK    5  A    between atoms: C_9  and  C_10 
REMARK    6  A    between atoms: N_15  and  C_14 
REMARK    7  A    between atoms: N_20  and  C_19 
REMARK       I    between atoms: C_22  and  N_20 
ROOT
ATOM      1  C   LIG d   1      -3.386  91.095 117.934  0.00  0.00     0.161 C 
ATOM      2  C   LIG d   1      -4.376  90.774 116.991  0.00  0.00     0.016 C 
ATOM      3  C   LIG d   1      -5.562  91.525 116.821  0.00  0.00     0.038 C 
ATOM      4  C   LIG d   1      -5.770  92.744 117.485  0.00  0.00     0.028 C 
ATOM      5  C   LIG d   1      -5.030  92.842 118.815  0.00  0.00    -0.047 C 
ATOM      6  C   LIG d   1      -3.543  92.483 118.590  0.00  0.00     0.091 C 
ENDROOT
BRANCH   1   7
ATOM      7  O   LIG d   1      -2.081  90.968 117.336  0.00  0.00    -0.368 OA
BRANCH   7   8
ATOM      8  C   LIG d   1      -1.325  89.787 117.700  0.00  0.00     0.119 C 
BRANCH   8   9
ATOM      9  C   LIG d   1      -1.932  89.232 119.003  0.00  0.00     0.028 C 
ATOM     10  C   LIG d   1      -0.949  89.304 120.184  0.00  0.00     0.006 C 
ENDBRANCH   8   9
BRANCH   8  11
ATOM     11  C   LIG d   1       0.125  90.138 118.044  0.00  0.00     0.028 C 
ATOM     12  C   LIG d   1       0.568  91.486 117.454  0.00  0.00     0.006 C 
ENDBRANCH   8  11
ENDBRANCH   7   8
ENDBRANCH   1   7
BRANCH   6  13
ATOM     13  N   LIG d   1      -2.765  92.473 119.856  0.00  0.00    -0.311 N 
ATOM     14  C   LIG d   1      -1.669  93.205 120.049  0.00  0.00     0.210 C 
ATOM     15  C   LIG d   1      -1.007  93.031 121.419  0.00  0.00     0.109 C 
ATOM     16  O   LIG d   1      -1.200  94.006 119.226  0.00  0.00    -0.276 OA
ATOM     17  H   LIG d   1      -3.093  91.874 120.588  0.00  0.00     0.149 HD
ENDBRANCH   6  13
BRANCH   5  18
ATOM     18  N   LIG d   1      -5.222  94.211 119.331  0.00  0.00     0.381 N 
ATOM     19  H   LIG d   1      -5.496  94.174 120.293  0.00  0.00    -0.090 HD
ATOM     20  H   LIG d   1      -5.958  94.654 118.810  0.00  0.00    -0.090 HD
ATOM     21  H   LIG d   1      -4.378  94.732 119.239  0.00  0.00    -0.090 HD
ENDBRANCH   5  18
BRANCH   3  22
ATOM     22  C   LIG d   1      -6.574  91.037 116.009  0.00  0.00     0.382 C 
ATOM     23  O   LIG d   1      -6.683  89.803 115.816  0.00  0.00    -0.241 OA
ATOM     24  O   LIG d   1      -7.353  91.819 115.431  0.00  0.00    -0.241 OA
ENDBRANCH   3  22
TORSDOF 7
ENDMDL
MODEL 6
REMARK VINA RESULT:      -4.3      1.842      5.003
REMARK  7 active torsions:
REMARK  status: ('A' for Active; 'I' for Inactive)
REMARK    1  A    between atoms: C_2  and  C_3 
REMARK    2  A    between atoms: C_3  and  O_6 
REMARK    3  A    between atoms: C_3  and  C_4 
REMARK    4  A    between atoms: C_7  and  O_6 
REMARK    5  A    between atoms: C_9  and  C_10 
REMARK    6  A    between atoms: N_15  and  C_14 
REMARK    7  A    between atoms: N_20  and  C_19 
REMARK       I    between atoms: C_22  and  N_20 
ROOT
ATOM      1  C   LIG d   1      -4.012  93.123 119.141  0.00  0.00     0.161 C 
ATOM      2  C   LIG d   1      -2.961  92.285 118.731  0.00  0.00     0.016 C 
ATOM      3  C   LIG d   1      -3.124  91.230 117.805  0.00  0.00     0.038 C 
ATOM      4  C   LIG d   1      -4.324  91.035 117.106  0.00  0.00     0.028 C 
ATOM      5  C   LIG d   1      -5.552  91.537 117.859  0.00  0.00    -0.047 C 
ATOM      6  C   LIG d   1      -5.303  92.996 118.306  0.00  0.00     0.091 C 
ENDROOT
BRANCH   1   7
ATOM      7  O   LIG d   1      -3.564  94.493 119.165  0.00  0.00    -0.368 OA
BRANCH   7   8
ATOM      8  C   LIG d   1      -2.129  94.695 119.138  0.00  0.00     0.119 C 
BRANCH   8   9
ATOM      9  C   LIG d   1      -1.720  95.296 120.496  0.00  0.00     0.028 C 
ATOM     10  C   LIG d   1      -1.292  94.221 121.509  0.00  0.00     0.006 C 
ENDBRANCH   8   9
BRANCH   8  11
ATOM     11  C   LIG d   1      -1.734  95.743 118.094  0.00  0.00     0.028 C 
ATOM     12  C   LIG d   1      -0.695  95.222 117.089  0.00  0.00     0.006 C 
ENDBRANCH   8  11
ENDBRANCH   7   8
ENDBRANCH   1   7
BRANCH   6  13
ATOM     13  N   LIG d   1      -6.422  93.537 119.123  0.00  0.00    -0.311 N 
ATOM     14  C   LIG d   1      -7.466  94.178 118.602  0.00  0.00     0.210 C 
ATOM     15  C   LIG d   1      -8.497  94.671 119.622  0.00  0.00     0.109 C 
ATOM     16  O   LIG d   1      -7.653  94.358 117.389  0.00  0.00    -0.276 OA
ATOM     17  H   LIG d   1      -6.366  93.408 120.114  0.00  0.00     0.149 HD
ENDBRANCH   6  13
BRANCH   5  18
ATOM     18  N   LIG d   1      -6.713  91.398 116.961  0.00  0.00     0.381 N 
ATOM     19  H   LIG d   1      -7.184  92.277 116.876  0.00  0.00    -0.090 HD
ATOM     20  H   LIG d   1      -7.354  90.734 117.359  0.00  0.00    -0.090 HD
ATOM     21  H   LIG d   1      -6.415  91.084 116.063  0.00  0.00    -0.090 HD
ENDBRANCH   5  18
BRANCH   3  22
ATOM     22  C   LIG d   1      -2.088  90.331 117.599  0.00  0.00     0.382 C 
ATOM     23  O   LIG d   1      -1.045  90.700 117.009  0.00  0.00    -0.241 OA
ATOM     24  O   LIG d   1      -2.203  89.143 117.957  0.00  0.00    -0.241 OA
ENDBRANCH   3  22
TORSDOF 7
ENDMDL
MODEL 7
REMARK VINA RESULT:      -4.3      3.590      7.009
REMARK  7 active torsions:
REMARK  status: ('A' for Active; 'I' for Inactive)
REMARK    1  A    between atoms: C_2  and  C_3 
REMARK    2  A    between atoms: C_3  and  O_6 
REMARK    3  A    between atoms: C_3  and  C_4 
REMARK    4  A    between atoms: C_7  and  O_6 
REMARK    5  A    between atoms: C_9  and  C_10 
REMARK    6  A    between atoms: N_15  and  C_14 
REMARK    7  A    between atoms: N_20  and  C_19 
REMARK       I    between atoms: C_22  and  N_20 
ROOT
ATOM      1  C   LIG d   1      -0.211  90.708 117.002  0.00  0.00     0.161 C 
ATOM      2  C   LIG d   1       1.105  91.114 117.278  0.00  0.00     0.016 C 
ATOM      3  C   LIG d   1       1.425  92.333 117.920  0.00  0.00     0.038 C 
ATOM      4  C   LIG d   1       0.437  93.163 118.469  0.00  0.00     0.028 C 
ATOM      5  C   LIG d   1      -0.913  93.042 117.771  0.00  0.00    -0.047 C 
ATOM      6  C   LIG d   1      -1.305  91.548 117.693  0.00  0.00     0.091 C 
ENDROOT
BRANCH   1   7
ATOM      7  O   LIG d   1      -0.370  89.313 117.328  0.00  0.00    -0.368 OA
BRANCH   7   8
ATOM      8  C   LIG d   1       0.236  88.875 118.569  0.00  0.00     0.119 C 
BRANCH   8   9
ATOM      9  C   LIG d   1       0.951  87.540 118.289  0.00  0.00     0.028 C 
ATOM     10  C   LIG d   1       0.837  87.110 116.816  0.00  0.00     0.006 C 
ENDBRANCH   8   9
BRANCH   8  11
ATOM     11  C   LIG d   1      -0.827  88.553 119.624  0.00  0.00     0.028 C 
ATOM     12  C   LIG d   1      -2.190  88.202 119.009  0.00  0.00     0.006 C 
ENDBRANCH   8  11
ENDBRANCH   7   8
ENDBRANCH   1   7
BRANCH   6  13
ATOM     13  N   LIG d   1      -2.574  91.334 116.950  0.00  0.00    -0.311 N 
ATOM     14  C   LIG d   1      -3.766  91.264 117.539  0.00  0.00     0.210 C 
ATOM     15  C   LIG d   1      -4.943  91.017 116.590  0.00  0.00     0.109 C 
ATOM     16  O   LIG d   1      -3.965  91.415 118.754  0.00  0.00    -0.276 OA
ATOM     17  H   LIG d   1      -2.509  91.232 115.956  0.00  0.00     0.149 HD
ENDBRANCH   6  13
BRANCH   5  18
ATOM     18  N   LIG d   1      -1.882  93.855 118.530  0.00  0.00     0.381 N 
ATOM     19  H   LIG d   1      -1.438  94.689 118.861  0.00  0.00    -0.090 HD
ATOM     20  H   LIG d   1      -2.196  93.328 119.325  0.00  0.00    -0.090 HD
ATOM     21  H   LIG d   1      -2.657  94.090 117.950  0.00  0.00    -0.090 HD
ENDBRANCH   5  18
BRANCH   3  22
ATOM     22  C   LIG d   1       2.746  92.750 117.982  0.00  0.00     0.382 C 
ATOM     23  O   LIG d   1       3.280  92.979 119.094  0.00  0.00    -0.241 OA
ATOM     24  O   LIG d   1       3.397  92.944 116.938  0.00  0.00    -0.241 OA
ENDBRANCH   3  22
TORSDOF 7
ENDMDL
MODEL 8
REMARK VINA RESULT:      -4.2      2.720      4.809
REMARK  7 active torsions:
REMARK  status: ('A' for Active; 'I' for Inactive)
REMARK    1  A    between atoms: C_2  and  C_3 
REMARK    2  A    between atoms: C_3  and  O_6 
REMARK    3  A    between atoms: C_3  and  C_4 
REMARK    4  A    between atoms: C_7  and  O_6 
REMARK    5  A    between atoms: C_9  and  C_10 
REMARK    6  A    between atoms: N_15  and  C_14 
REMARK    7  A    between atoms: N_20  and  C_19 
REMARK       I    between atoms: C_22  and  N_20 
ROOT
ATOM      1  C   LIG d   1      -5.779  93.691 119.709  0.00  0.00     0.161 C 
ATOM      2  C   LIG d   1      -5.512  92.622 118.838  0.00  0.00     0.016 C 
ATOM      3  C   LIG d   1      -6.201  92.419 117.620  0.00  0.00     0.038 C 
ATOM      4  C   LIG d   1      -7.107  93.364 117.115  0.00  0.00     0.028 C 
ATOM      5  C   LIG d   1      -7.776  94.202 118.199  0.00  0.00    -0.047 C 
ATOM      6  C   LIG d   1      -6.685  94.793 119.121  0.00  0.00     0.091 C 
ENDROOT
BRANCH   1   7
ATOM      7  O   LIG d   1      -4.540  94.259 120.179  0.00  0.00    -0.368 OA
BRANCH   7   8
ATOM      8  C   LIG d   1      -3.735  94.942 119.187  0.00  0.00     0.119 C 
BRANCH   8   9
ATOM      9  C   LIG d   1      -2.354  94.260 119.162  0.00  0.00     0.028 C 
ATOM     10  C   LIG d   1      -2.068  93.560 117.822  0.00  0.00     0.006 C 
ENDBRANCH   8   9
BRANCH   8  11
ATOM     11  C   LIG d   1      -3.463  96.394 119.593  0.00  0.00     0.028 C 
ATOM     12  C   LIG d   1      -3.796  96.672 121.067  0.00  0.00     0.006 C 
ENDBRANCH   8  11
ENDBRANCH   7   8
ENDBRANCH   1   7
BRANCH   6  13
ATOM     13  N   LIG d   1      -7.258  95.558 120.259  0.00  0.00    -0.311 N 
ATOM     14  C   LIG d   1      -8.394  95.224 120.869  0.00  0.00     0.210 C 
ATOM     15  C   LIG d   1      -8.817  96.159 122.006  0.00  0.00     0.109 C 
ATOM     16  O   LIG d   1      -9.075  94.223 120.597  0.00  0.00    -0.276 OA
ATOM     17  H   LIG d   1      -6.754  96.367 120.565  0.00  0.00     0.149 HD
ENDBRANCH   6  13
BRANCH   5  18
ATOM     18  N   LIG d   1      -8.587  95.235 117.527  0.00  0.00     0.381 N 
ATOM     19  H   LIG d   1      -8.636  96.053 118.101  0.00  0.00    -0.090 HD
ATOM     20  H   LIG d   1      -9.519  94.884 117.398  0.00  0.00    -0.090 HD
ATOM     21  H   LIG d   1      -8.185  95.463 116.644  0.00  0.00    -0.090 HD
ENDBRANCH   5  18
BRANCH   3  22
ATOM     22  C   LIG d   1      -6.017  91.241 116.913  0.00  0.00     0.382 C 
ATOM     23  O   LIG d   1      -4.856  90.817 116.694  0.00  0.00    -0.241 OA
ATOM     24  O   LIG d   1      -6.994  90.620 116.454  0.00  0.00    -0.241 OA
ENDBRANCH   3  22
TORSDOF 7
ENDMDL
MODEL 9
REMARK VINA RESULT:      -4.2      2.231      3.242
REMARK  7 active torsions:
REMARK  status: ('A' for Active; 'I' for Inactive)
REMARK    1  A    between atoms: C_2  and  C_3 
REMARK    2  A    between atoms: C_3  and  O_6 
REMARK    3  A    between atoms: C_3  and  C_4 
REMARK    4  A    between atoms: C_7  and  O_6 
REMARK    5  A    between atoms: C_9  and  C_10 
REMARK    6  A    between atoms: N_15  and  C_14 
REMARK    7  A    between atoms: N_20  and  C_19 
REMARK       I    between atoms: C_22  and  N_20 
ROOT
ATOM      1  C   LIG d   1      -3.855  93.353 119.047  0.00  0.00     0.161 C 
ATOM      2  C   LIG d   1      -5.094  93.011 118.480  0.00  0.00     0.016 C 
ATOM      3  C   LIG d   1      -5.262  91.952 117.558  0.00  0.00     0.038 C 
ATOM      4  C   LIG d   1      -4.222  91.061 117.254  0.00  0.00     0.028 C 
ATOM      5  C   LIG d   1      -2.834  91.673 117.414  0.00  0.00    -0.047 C 
ATOM      6  C   LIG d   1      -2.731  92.322 118.813  0.00  0.00     0.091 C 
ENDROOT
BRANCH   1   7
ATOM      7  O   LIG d   1      -4.017  93.607 120.457  0.00  0.00    -0.368 OA
BRANCH   7   8
ATOM      8  C   LIG d   1      -4.435  92.478 121.264  0.00  0.00     0.119 C 
BRANCH   8   9
ATOM      9  C   LIG d   1      -5.661  92.925 122.083  0.00  0.00     0.028 C 
ATOM     10  C   LIG d   1      -6.363  91.746 122.779  0.00  0.00     0.006 C 
ENDBRANCH   8   9
BRANCH   8  11
ATOM     11  C   LIG d   1      -3.369  92.108 122.299  0.00  0.00     0.028 C 
ATOM     12  C   LIG d   1      -2.909  90.646 122.183  0.00  0.00     0.006 C 
ENDBRANCH   8  11
ENDBRANCH   7   8
ENDBRANCH   1   7
BRANCH   6  13
ATOM     13  N   LIG d   1      -1.433  93.017 119.021  0.00  0.00    -0.311 N 
ATOM     14  C   LIG d   1      -0.368  92.434 119.567  0.00  0.00     0.210 C 
ATOM     15  C   LIG d   1       0.862  93.336 119.707  0.00  0.00     0.109 C 
ATOM     16  O   LIG d   1      -0.315  91.246 119.918  0.00  0.00    -0.276 OA
ATOM     17  H   LIG d   1      -1.379  93.975 118.735  0.00  0.00     0.149 HD
ENDBRANCH   6  13
BRANCH   5  18
ATOM     18  N   LIG d   1      -1.846  90.599 117.201  0.00  0.00     0.381 N 
ATOM     19  H   LIG d   1      -0.968  90.862 117.601  0.00  0.00    -0.090 HD
ATOM     20  H   LIG d   1      -1.717  90.468 116.213  0.00  0.00    -0.090 HD
ATOM     21  H   LIG d   1      -2.168  89.752 117.616  0.00  0.00    -0.090 HD
ENDBRANCH   5  18
BRANCH   3  22
ATOM     22  C   LIG d   1      -6.472  91.801 116.898  0.00  0.00     0.382 C 
ATOM     23  O   LIG d   1      -7.120  92.813 116.536  0.00  0.00    -0.241 OA
ATOM     24  O   LIG d   1      -6.946  90.666 116.699  0.00  0.00    -0.241 OA
ENDBRANCH   3  22
TORSDOF 7
ENDMDL
