MODEL 1
REMARK VINA RESULT:      -5.0      0.000      0.000
REMARK  7 active torsions:
REMARK  status: ('A' for Active; 'I' for Inactive)
REMARK    1  A    between atoms: C_2  and  C_3 
REMARK    2  A    between atoms: C_3  and  O_6 
REMARK    3  A    between atoms: C_3  and  C_4 
REMARK    4  A    between atoms: C_7  and  O_6 
REMARK    5  A    between atoms: C_9  and  C_10 
REMARK    6  A    between atoms: N_15  and  C_14 
REMARK    7  A    between atoms: N_20  and  C_19 
REMARK       I    between atoms: C_22  and  N_20 
ROOT
ATOM      1  C   LIG d   1      -3.532  91.190 118.147  0.00  0.00     0.161 C 
ATOM      2  C   LIG d   1      -4.418  90.354 117.448  0.00  0.00     0.016 C 
ATOM      3  C   LIG d   1      -5.699  90.767 117.013  0.00  0.00     0.038 C 
ATOM      4  C   LIG d   1      -6.122  92.100 117.117  0.00  0.00     0.028 C 
ATOM      5  C   LIG d   1      -5.465  92.857 118.266  0.00  0.00    -0.047 C 
ATOM      6  C   LIG d   1      -3.932  92.680 118.172  0.00  0.00     0.091 C 
ENDROOT
BRANCH   1   7
ATOM      7  O   LIG d   1      -2.199  91.038 117.621  0.00  0.00    -0.368 OA
BRANCH   7   8
ATOM      8  C   LIG d   1      -1.305  90.190 118.384  0.00  0.00     0.119 C 
BRANCH   8   9
ATOM      9  C   LIG d   1      -0.152  91.075 118.895  0.00  0.00     0.028 C 
ATOM     10  C   LIG d   1       0.452  91.951 117.785  0.00  0.00     0.006 C 
ENDBRANCH   8   9
BRANCH   8  11
ATOM     11  C   LIG d   1      -0.643  89.134 117.494  0.00  0.00     0.028 C 
ATOM     12  C   LIG d   1      -1.545  87.915 117.244  0.00  0.00     0.006 C 
ENDBRANCH   8  11
ENDBRANCH   7   8
ENDBRANCH   1   7
BRANCH   6  13
ATOM     13  N   LIG d   1      -3.217  93.319 119.307  0.00  0.00    -0.311 N 
ATOM     14  C   LIG d   1      -2.243  94.213 119.150  0.00  0.00     0.210 C 
ATOM     15  C   LIG d   1      -1.625  94.733 120.452  0.00  0.00     0.109 C 
ATOM     16  O   LIG d   1      -1.853  94.650 118.056  0.00  0.00    -0.276 OA
ATOM     17  H   LIG d   1      -3.491  93.046 120.231  0.00  0.00     0.149 HD
ENDBRANCH   6  13
BRANCH   5  18
ATOM     18  N   LIG d   1      -5.891  94.266 118.173  0.00  0.00     0.381 N 
ATOM     19  H   LIG d   1      -5.174  94.861 118.538  0.00  0.00    -0.090 HD
ATOM     20  H   LIG d   1      -6.719  94.393 118.728  0.00  0.00    -0.090 HD
ATOM     21  H   LIG d   1      -6.079  94.504 117.224  0.00  0.00    -0.090 HD
ENDBRANCH   5  18
BRANCH   3  22
ATOM     22  C   LIG d   1      -6.586  89.832 116.503  0.00  0.00     0.382 C 
ATOM     23  O   LIG d   1      -7.629  89.545 117.139  0.00  0.00    -0.241 OA
ATOM     24  O   LIG d   1      -6.336  89.240 115.436  0.00  0.00    -0.241 OA
ENDBRANCH   3  22
TORSDOF 7
ENDMDL
MODEL 2
REMARK VINA RESULT:      -4.9      1.533      2.273
REMARK  7 active torsions:
REMARK  status: ('A' for Active; 'I' for Inactive)
REMARK    1  A    between atoms: C_2  and  C_3 
REMARK    2  A    between atoms: C_3  and  O_6 
REMARK    3  A    between atoms: C_3  and  C_4 
REMARK    4  A    between atoms: C_7  and  O_6 
REMARK    5  A    between atoms: C_9  and  C_10 
REMARK    6  A    between atoms: N_15  and  C_14 
REMARK    7  A    between atoms: N_20  and  C_19 
REMARK       I    between atoms: C_22  and  N_20 
ROOT
ATOM      1  C   LIG d   1      -4.421  91.703 119.461  0.00  0.00     0.161 C 
ATOM      2  C   LIG d   1      -4.903  90.711 118.591  0.00  0.00     0.016 C 
ATOM      3  C   LIG d   1      -5.824  90.971 117.549  0.00  0.00     0.038 C 
ATOM      4  C   LIG d   1      -6.211  92.277 117.211  0.00  0.00     0.028 C 
ATOM      5  C   LIG d   1      -6.142  93.252 118.381  0.00  0.00    -0.047 C 
ATOM      6  C   LIG d   1      -4.746  93.150 119.037  0.00  0.00     0.091 C 
ENDROOT
BRANCH   1   7
ATOM      7  O   LIG d   1      -3.000  91.542 119.646  0.00  0.00    -0.368 OA
BRANCH   7   8
ATOM      8  C   LIG d   1      -2.179  91.729 118.467  0.00  0.00     0.119 C 
BRANCH   8   9
ATOM      9  C   LIG d   1      -1.219  90.528 118.376  0.00  0.00     0.028 C 
ATOM     10  C   LIG d   1      -1.579  89.574 117.224  0.00  0.00     0.006 C 
ENDBRANCH   8   9
BRANCH   8  11
ATOM     11  C   LIG d   1      -1.278  92.959 118.606  0.00  0.00     0.028 C 
ATOM     12  C   LIG d   1      -1.278  93.843 117.348  0.00  0.00     0.006 C 
ENDBRANCH   8  11
ENDBRANCH   7   8
ENDBRANCH   1   7
BRANCH   6  13
ATOM     13  N   LIG d   1      -4.622  94.011 120.242  0.00  0.00    -0.311 N 
ATOM     14  C   LIG d   1      -4.083  95.228 120.222  0.00  0.00     0.210 C 
ATOM     15  C   LIG d   1      -4.035  95.938 121.579  0.00  0.00     0.109 C 
ATOM     16  O   LIG d   1      -3.668  95.801 119.203  0.00  0.00    -0.276 OA
ATOM     17  H   LIG d   1      -4.961  93.637 121.107  0.00  0.00     0.149 HD
ENDBRANCH   6  13
BRANCH   5  18
ATOM     18  N   LIG d   1      -6.437  94.599 117.856  0.00  0.00     0.381 N 
ATOM     19  H   LIG d   1      -6.161  95.290 118.525  0.00  0.00    -0.090 HD
ATOM     20  H   LIG d   1      -7.428  94.680 117.709  0.00  0.00    -0.090 HD
ATOM     21  H   LIG d   1      -5.954  94.744 116.998  0.00  0.00    -0.090 HD
ENDBRANCH   5  18
BRANCH   3  22
ATOM     22  C   LIG d   1      -6.398  89.914 116.860  0.00  0.00     0.382 C 
ATOM     23  O   LIG d   1      -7.585  89.583 117.096  0.00  0.00    -0.241 OA
ATOM     24  O   LIG d   1      -5.731  89.260 116.037  0.00  0.00    -0.241 OA
ENDBRANCH   3  22
TORSDOF 7
ENDMDL
MODEL 3
REMARK VINA RESULT:      -4.8      1.751      2.496
REMARK  7 active torsions:
REMARK  status: ('A' for Active; 'I' for Inactive)
REMARK    1  A    between atoms: C_2  and  C_3 
REMARK    2  A    between atoms: C_3  and  O_6 
REMARK    3  A    between atoms: C_3  and  C_4 
REMARK    4  A    between atoms: C_7  and  O_6 
REMARK    5  A    between atoms: C_9  and  C_10 
REMARK    6  A    between atoms: N_15  and  C_14 
REMARK    7  A    between atoms: N_20  and  C_19 
REMARK       I    between atoms: C_22  and  N_20 
ROOT
ATOM      1  C   LIG d   1      -2.636  89.911 117.641  0.00  0.00     0.161 C 
ATOM      2  C   LIG d   1      -3.860  89.697 116.986  0.00  0.00     0.016 C 
ATOM      3  C   LIG d   1      -4.830  90.709 116.800  0.00  0.00     0.038 C 
ATOM      4  C   LIG d   1      -4.575  92.050 117.125  0.00  0.00     0.028 C 
ATOM      5  C   LIG d   1      -3.555  92.217 118.246  0.00  0.00    -0.047 C 
ATOM      6  C   LIG d   1      -2.293  91.393 117.904  0.00  0.00     0.091 C 
ENDROOT
BRANCH   1   7
ATOM      7  O   LIG d   1      -1.572  89.273 116.908  0.00  0.00    -0.368 OA
BRANCH   7   8
ATOM      8  C   LIG d   1      -1.288  87.898 117.264  0.00  0.00     0.119 C 
BRANCH   8   9
ATOM      9  C   LIG d   1      -1.310  87.804 118.802  0.00  0.00     0.028 C 
ATOM     10  C   LIG d   1       0.080  88.019 119.423  0.00  0.00     0.006 C 
ENDBRANCH   8   9
BRANCH   8  11
ATOM     11  C   LIG d   1       0.132  87.498 116.854  0.00  0.00     0.028 C 
ATOM     12  C   LIG d   1       0.156  86.350 115.831  0.00  0.00     0.006 C 
ENDBRANCH   8  11
ENDBRANCH   7   8
ENDBRANCH   1   7
BRANCH   6  13
ATOM     13  N   LIG d   1      -1.278  91.434 118.988  0.00  0.00    -0.311 N 
ATOM     14  C   LIG d   1      -0.024  91.843 118.803  0.00  0.00     0.210 C 
ATOM     15  C   LIG d   1       0.865  91.787 120.050  0.00  0.00     0.109 C 
ATOM     16  O   LIG d   1       0.428  92.277 117.733  0.00  0.00    -0.276 OA
ATOM     17  H   LIG d   1      -1.568  91.128 119.897  0.00  0.00     0.149 HD
ENDBRANCH   6  13
BRANCH   5  18
ATOM     18  N   LIG d   1      -3.282  93.660 118.388  0.00  0.00     0.381 N 
ATOM     19  H   LIG d   1      -3.155  93.888 119.354  0.00  0.00    -0.090 HD
ATOM     20  H   LIG d   1      -4.072  94.176 118.043  0.00  0.00    -0.090 HD
ATOM     21  H   LIG d   1      -2.466  93.905 117.872  0.00  0.00    -0.090 HD
ENDBRANCH   5  18
BRANCH   3  22
ATOM     22  C   LIG d   1      -6.087  90.376 116.319  0.00  0.00     0.382 C 
ATOM     23  O   LIG d   1      -6.893  91.280 115.990  0.00  0.00    -0.241 OA
ATOM     24  O   LIG d   1      -6.443  89.184 116.253  0.00  0.00    -0.241 OA
ENDBRANCH   3  22
TORSDOF 7
ENDMDL
MODEL 4
REMARK VINA RESULT:      -4.8      2.314      4.858
REMARK  7 active torsions:
REMARK  status: ('A' for Active; 'I' for Inactive)
REMARK    1  A    between atoms: C_2  and  C_3 
REMARK    2  A    between atoms: C_3  and  O_6 
REMARK    3  A    between atoms: C_3  and  C_4 
REMARK    4  A    between atoms: C_7  and  O_6 
REMARK    5  A    between atoms: C_9  and  C_10 
REMARK    6  A    between atoms: N_15  and  C_14 
REMARK    7  A    between atoms: N_20  and  C_19 
REMARK       I    between atoms: C_22  and  N_20 
ROOT
ATOM      1  C   LIG d   1      -5.641  93.158 117.905  0.00  0.00     0.161 C 
ATOM      2  C   LIG d   1      -6.387  92.053 117.464  0.00  0.00     0.016 C 
ATOM      3  C   LIG d   1      -5.852  90.750 117.345  0.00  0.00     0.038 C 
ATOM      4  C   LIG d   1      -4.566  90.431 117.808  0.00  0.00     0.028 C 
ATOM      5  C   LIG d   1      -3.606  91.616 117.793  0.00  0.00    -0.047 C 
ATOM      6  C   LIG d   1      -4.269  92.808 118.520  0.00  0.00     0.091 C 
ENDROOT
BRANCH   1   7
ATOM      7  O   LIG d   1      -6.422  93.935 118.834  0.00  0.00    -0.368 OA
BRANCH   7   8
ATOM      8  C   LIG d   1      -6.900  95.215 118.350  0.00  0.00     0.119 C 
BRANCH   8   9
ATOM      9  C   LIG d   1      -6.138  96.313 119.116  0.00  0.00     0.028 C 
ATOM     10  C   LIG d   1      -5.778  95.888 120.549  0.00  0.00     0.006 C 
ENDBRANCH   8   9
BRANCH   8  11
ATOM     11  C   LIG d   1      -8.376  95.426 118.700  0.00  0.00     0.028 C 
ATOM     12  C   LIG d   1      -8.918  94.362 119.668  0.00  0.00     0.006 C 
ENDBRANCH   8  11
ENDBRANCH   7   8
ENDBRANCH   1   7
BRANCH   6  13
ATOM     13  N   LIG d   1      -3.431  94.035 118.477  0.00  0.00    -0.311 N 
ATOM     14  C   LIG d   1      -2.579  94.374 119.442  0.00  0.00     0.210 C 
ATOM     15  C   LIG d   1      -1.828  95.689 119.209  0.00  0.00     0.109 C 
ATOM     16  O   LIG d   1      -2.349  93.695 120.454  0.00  0.00    -0.276 OA
ATOM     17  H   LIG d   1      -3.531  94.628 117.676  0.00  0.00     0.149 HD
ENDBRANCH   6  13
BRANCH   5  18
ATOM     18  N   LIG d   1      -2.348  91.179 118.427  0.00  0.00     0.381 N 
ATOM     19  H   LIG d   1      -1.684  90.925 117.723  0.00  0.00    -0.090 HD
ATOM     20  H   LIG d   1      -2.534  90.369 118.992  0.00  0.00    -0.090 HD
ATOM     21  H   LIG d   1      -1.980  91.911 118.994  0.00  0.00    -0.090 HD
ENDBRANCH   5  18
BRANCH   3  22
ATOM     22  C   LIG d   1      -6.592  89.757 116.722  0.00  0.00     0.382 C 
ATOM     23  O   LIG d   1      -7.752  89.495 117.121  0.00  0.00    -0.241 OA
ATOM     24  O   LIG d   1      -6.098  89.089 115.794  0.00  0.00    -0.241 OA
ENDBRANCH   3  22
TORSDOF 7
ENDMDL
MODEL 5
REMARK VINA RESULT:      -4.6      2.402      5.942
REMARK  7 active torsions:
REMARK  status: ('A' for Active; 'I' for Inactive)
REMARK    1  A    between atoms: C_2  and  C_3 
REMARK    2  A    between atoms: C_3  and  O_6 
REMARK    3  A    between atoms: C_3  and  C_4 
REMARK    4  A    between atoms: C_7  and  O_6 
REMARK    5  A    between atoms: C_9  and  C_10 
REMARK    6  A    between atoms: N_15  and  C_14 
REMARK    7  A    between atoms: N_20  and  C_19 
REMARK       I    between atoms: C_22  and  N_20 
ROOT
ATOM      1  C   LIG d   1      -2.999  92.408 119.362  0.00  0.00     0.161 C 
ATOM      2  C   LIG d   1      -2.822  93.793 119.208  0.00  0.00     0.016 C 
ATOM      3  C   LIG d   1      -1.877  94.363 118.324  0.00  0.00     0.038 C 
ATOM      4  C   LIG d   1      -1.147  93.582 117.416  0.00  0.00     0.028 C 
ATOM      5  C   LIG d   1      -0.928  92.149 117.888  0.00  0.00    -0.047 C 
ATOM      6  C   LIG d   1      -2.290  91.543 118.299  0.00  0.00     0.091 C 
ENDROOT
BRANCH   1   7
ATOM      7  O   LIG d   1      -4.406  92.097 119.402  0.00  0.00    -0.368 OA
BRANCH   7   8
ATOM      8  C   LIG d   1      -5.224  92.709 118.374  0.00  0.00     0.119 C 
BRANCH   8   9
ATOM      9  C   LIG d   1      -6.366  93.466 119.080  0.00  0.00     0.028 C 
ATOM     10  C   LIG d   1      -6.918  94.621 118.228  0.00  0.00     0.006 C 
ENDBRANCH   8   9
BRANCH   8  11
ATOM     11  C   LIG d   1      -5.913  91.650 117.508  0.00  0.00     0.028 C 
ATOM     12  C   LIG d   1      -5.639  91.837 116.007  0.00  0.00     0.006 C 
ENDBRANCH   8  11
ENDBRANCH   7   8
ENDBRANCH   1   7
BRANCH   6  13
ATOM     13  N   LIG d   1      -2.155  90.170 118.853  0.00  0.00    -0.311 N 
ATOM     14  C   LIG d   1      -2.840  89.124 118.394  0.00  0.00     0.210 C 
ATOM     15  C   LIG d   1      -2.566  87.803 119.120  0.00  0.00     0.109 C 
ATOM     16  O   LIG d   1      -3.624  89.158 117.434  0.00  0.00    -0.276 OA
ATOM     17  H   LIG d   1      -1.517  90.046 119.614  0.00  0.00     0.149 HD
ENDBRANCH   6  13
BRANCH   5  18
ATOM     18  N   LIG d   1      -0.276  91.412 116.789  0.00  0.00     0.381 N 
ATOM     19  H   LIG d   1       0.312  90.695 117.164  0.00  0.00    -0.090 HD
ATOM     20  H   LIG d   1       0.298  92.049 116.266  0.00  0.00    -0.090 HD
ATOM     21  H   LIG d   1      -0.965  91.008 116.193  0.00  0.00    -0.090 HD
ENDBRANCH   5  18
BRANCH   3  22
ATOM     22  C   LIG d   1      -1.628  95.726 118.370  0.00  0.00     0.382 C 
ATOM     23  O   LIG d   1      -0.469  96.143 118.611  0.00  0.00    -0.241 OA
ATOM     24  O   LIG d   1      -2.555  96.544 118.219  0.00  0.00    -0.241 OA
ENDBRANCH   3  22
TORSDOF 7
ENDMDL
MODEL 6
REMARK VINA RESULT:      -4.5      2.358      3.843
REMARK  7 active torsions:
REMARK  status: ('A' for Active; 'I' for Inactive)
REMARK    1  A    between atoms: C_2  and  C_3 
REMARK    2  A    between atoms: C_3  and  O_6 
REMARK    3  A    between atoms: C_3  and  C_4 
REMARK    4  A    between atoms: C_7  and  O_6 
REMARK    5  A    between atoms: C_9  and  C_10 
REMARK    6  A    between atoms: N_15  and  C_14 
REMARK    7  A    between atoms: N_20  and  C_19 
REMARK       I    between atoms: C_22  and  N_20 
ROOT
ATOM      1  C   LIG d   1      -4.645  92.370 118.353  0.00  0.00     0.161 C 
ATOM      2  C   LIG d   1      -5.991  92.752 118.482  0.00  0.00     0.016 C 
ATOM      3  C   LIG d   1      -6.399  94.002 119.002  0.00  0.00     0.038 C 
ATOM      4  C   LIG d   1      -5.479  95.021 119.289  0.00  0.00     0.028 C 
ATOM      5  C   LIG d   1      -4.092  94.501 119.650  0.00  0.00    -0.047 C 
ATOM      6  C   LIG d   1      -3.627  93.511 118.557  0.00  0.00     0.091 C 
ENDROOT
BRANCH   1   7
ATOM      7  O   LIG d   1      -4.437  91.736 117.075  0.00  0.00    -0.368 OA
BRANCH   7   8
ATOM      8  C   LIG d   1      -4.537  90.291 117.057  0.00  0.00     0.119 C 
BRANCH   8   9
ATOM      9  C   LIG d   1      -3.103  89.728 117.110  0.00  0.00     0.028 C 
ATOM     10  C   LIG d   1      -2.825  88.949 118.407  0.00  0.00     0.006 C 
ENDBRANCH   8   9
BRANCH   8  11
ATOM     11  C   LIG d   1      -5.121  89.789 115.734  0.00  0.00     0.028 C 
ATOM     12  C   LIG d   1      -6.646  89.964 115.651  0.00  0.00     0.006 C 
ENDBRANCH   8  11
ENDBRANCH   7   8
ENDBRANCH   1   7
BRANCH   6  13
ATOM     13  N   LIG d   1      -2.314  92.891 118.875  0.00  0.00    -0.311 N 
ATOM     14  C   LIG d   1      -1.236  93.022 118.105  0.00  0.00     0.210 C 
ATOM     15  C   LIG d   1       0.010  92.285 118.606  0.00  0.00     0.109 C 
ATOM     16  O   LIG d   1      -1.184  93.705 117.071  0.00  0.00    -0.276 OA
ATOM     17  H   LIG d   1      -2.259  92.345 119.713  0.00  0.00     0.149 HD
ENDBRANCH   6  13
BRANCH   5  18
ATOM     18  N   LIG d   1      -3.200  95.668 119.790  0.00  0.00     0.381 N 
ATOM     19  H   LIG d   1      -2.604  95.736 118.990  0.00  0.00    -0.090 HD
ATOM     20  H   LIG d   1      -2.624  95.541 120.604  0.00  0.00    -0.090 HD
ATOM     21  H   LIG d   1      -3.740  96.500 119.883  0.00  0.00    -0.090 HD
ENDBRANCH   5  18
BRANCH   3  22
ATOM     22  C   LIG d   1      -7.739  94.227 119.277  0.00  0.00     0.382 C 
ATOM     23  O   LIG d   1      -8.551  94.401 118.337  0.00  0.00    -0.241 OA
ATOM     24  O   LIG d   1      -8.138  94.303 120.454  0.00  0.00    -0.241 OA
ENDBRANCH   3  22
TORSDOF 7
ENDMDL
MODEL 7
REMARK VINA RESULT:      -4.4      1.763      2.430
REMARK  7 active torsions:
REMARK  status: ('A' for Active; 'I' for Inactive)
REMARK    1  A    between atoms: C_2  and  C_3 
REMARK    2  A    between atoms: C_3  and  O_6 
REMARK    3  A    between atoms: C_3  and  C_4 
REMARK    4  A    between atoms: C_7  and  O_6 
REMARK    5  A    between atoms: C_9  and  C_10 
REMARK    6  A    between atoms: N_15  and  C_14 
REMARK    7  A    between atoms: N_20  and  C_19 
REMARK       I    between atoms: C_22  and  N_20 
ROOT
ATOM      1  C   LIG d   1      -4.136  91.574 118.686  0.00  0.00     0.161 C 
ATOM      2  C   LIG d   1      -4.504  90.551 117.795  0.00  0.00     0.016 C 
ATOM      3  C   LIG d   1      -5.570  90.667 116.874  0.00  0.00     0.038 C 
ATOM      4  C   LIG d   1      -6.249  91.878 116.675  0.00  0.00     0.028 C 
ATOM      5  C   LIG d   1      -6.247  92.783 117.903  0.00  0.00    -0.047 C 
ATOM      6  C   LIG d   1      -4.794  92.941 118.406  0.00  0.00     0.091 C 
ENDROOT
BRANCH   1   7
ATOM      7  O   LIG d   1      -2.701  91.704 118.714  0.00  0.00    -0.368 OA
BRANCH   7   8
ATOM      8  C   LIG d   1      -2.037  91.182 119.891  0.00  0.00     0.119 C 
BRANCH   8   9
ATOM      9  C   LIG d   1      -3.113  90.965 120.972  0.00  0.00     0.028 C 
ATOM     10  C   LIG d   1      -2.867  91.822 122.225  0.00  0.00     0.006 C 
ENDBRANCH   8   9
BRANCH   8  11
ATOM     11  C   LIG d   1      -1.067  92.207 120.484  0.00  0.00     0.028 C 
ATOM     12  C   LIG d   1       0.402  91.901 120.150  0.00  0.00     0.006 C 
ENDBRANCH   8  11
ENDBRANCH   7   8
ENDBRANCH   1   7
BRANCH   6  13
ATOM     13  N   LIG d   1      -4.711  93.744 119.655  0.00  0.00    -0.311 N 
ATOM     14  C   LIG d   1      -3.821  94.717 119.843  0.00  0.00     0.210 C 
ATOM     15  C   LIG d   1      -3.895  95.404 121.210  0.00  0.00     0.109 C 
ATOM     16  O   LIG d   1      -3.000  95.097 118.996  0.00  0.00    -0.276 OA
ATOM     17  H   LIG d   1      -5.361  93.522 120.383  0.00  0.00     0.149 HD
ENDBRANCH   6  13
BRANCH   5  18
ATOM     18  N   LIG d   1      -6.867  94.064 117.514  0.00  0.00     0.381 N 
ATOM     19  H   LIG d   1      -6.680  94.251 116.549  0.00  0.00    -0.090 HD
ATOM     20  H   LIG d   1      -6.461  94.801 118.063  0.00  0.00    -0.090 HD
ATOM     21  H   LIG d   1      -7.850  94.028 117.668  0.00  0.00    -0.090 HD
ENDBRANCH   5  18
BRANCH   3  22
ATOM     22  C   LIG d   1      -5.993  89.551 116.168  0.00  0.00     0.382 C 
ATOM     23  O   LIG d   1      -7.199  89.207 116.203  0.00  0.00    -0.241 OA
ATOM     24  O   LIG d   1      -5.176  88.859 115.532  0.00  0.00    -0.241 OA
ENDBRANCH   3  22
TORSDOF 7
ENDMDL
MODEL 8
REMARK VINA RESULT:      -4.3      2.029      4.170
REMARK  7 active torsions:
REMARK  status: ('A' for Active; 'I' for Inactive)
REMARK    1  A    between atoms: C_2  and  C_3 
REMARK    2  A    between atoms: C_3  and  O_6 
REMARK    3  A    between atoms: C_3  and  C_4 
REMARK    4  A    between atoms: C_7  and  O_6 
REMARK    5  A    between atoms: C_9  and  C_10 
REMARK    6  A    between atoms: N_15  and  C_14 
REMARK    7  A    between atoms: N_20  and  C_19 
REMARK       I    between atoms: C_22  and  N_20 
ROOT
ATOM      1  C   LIG d   1      -3.495  92.178 117.914  0.00  0.00     0.161 C 
ATOM      2  C   LIG d   1      -4.788  91.860 117.466  0.00  0.00     0.016 C 
ATOM      3  C   LIG d   1      -5.140  90.595 116.941  0.00  0.00     0.038 C 
ATOM      4  C   LIG d   1      -4.253  89.508 116.969  0.00  0.00     0.028 C 
ATOM      5  C   LIG d   1      -2.786  89.922 116.947  0.00  0.00    -0.047 C 
ATOM      6  C   LIG d   1      -2.544  90.972 118.055  0.00  0.00     0.091 C 
ENDROOT
BRANCH   1   7
ATOM      7  O   LIG d   1      -3.574  92.903 119.157  0.00  0.00    -0.368 OA
BRANCH   7   8
ATOM      8  C   LIG d   1      -3.154  94.289 119.115  0.00  0.00     0.119 C 
BRANCH   8   9
ATOM      9  C   LIG d   1      -1.876  94.412 119.967  0.00  0.00     0.028 C 
ATOM     10  C   LIG d   1      -1.838  93.393 121.119  0.00  0.00     0.006 C 
ENDBRANCH   8   9
BRANCH   8  11
ATOM     11  C   LIG d   1      -4.181  95.203 119.791  0.00  0.00     0.028 C 
ATOM     12  C   LIG d   1      -5.627  94.879 119.382  0.00  0.00     0.006 C 
ENDBRANCH   8  11
ENDBRANCH   7   8
ENDBRANCH   1   7
BRANCH   6  13
ATOM     13  N   LIG d   1      -1.152  91.493 118.048  0.00  0.00    -0.311 N 
ATOM     14  C   LIG d   1      -0.178  90.994 118.807  0.00  0.00     0.210 C 
ATOM     15  C   LIG d   1       1.178  91.691 118.661  0.00  0.00     0.109 C 
ATOM     16  O   LIG d   1      -0.301  90.018 119.563  0.00  0.00    -0.276 OA
ATOM     17  H   LIG d   1      -0.957  92.264 117.440  0.00  0.00     0.149 HD
ENDBRANCH   6  13
BRANCH   5  18
ATOM     18  N   LIG d   1      -1.975  88.702 117.119  0.00  0.00     0.381 N 
ATOM     19  H   LIG d   1      -1.469  88.751 117.980  0.00  0.00    -0.090 HD
ATOM     20  H   LIG d   1      -1.313  88.643 116.366  0.00  0.00    -0.090 HD
ATOM     21  H   LIG d   1      -2.564  87.898 117.117  0.00  0.00    -0.090 HD
ENDBRANCH   5  18
BRANCH   3  22
ATOM     22  C   LIG d   1      -6.379  90.419 116.344  0.00  0.00     0.382 C 
ATOM     23  O   LIG d   1      -6.878  89.271 116.262  0.00  0.00    -0.241 OA
ATOM     24  O   LIG d   1      -6.983  91.388 115.846  0.00  0.00    -0.241 OA
ENDBRANCH   3  22
TORSDOF 7
ENDMDL
MODEL 9
REMARK VINA RESULT:      -4.2      2.077      2.627
REMARK  7 active torsions:
REMARK  status: ('A' for Active; 'I' for Inactive)
REMARK    1  A    between atoms: C_2  and  C_3 
REMARK    2  A    between atoms: C_3  and  O_6 
REMARK    3  A    between atoms: C_3  and  C_4 
REMARK    4  A    between atoms: C_7  and  O_6 
REMARK    5  A    between atoms: C_9  and  C_10 
REMARK    6  A    between atoms: N_15  and  C_14 
REMARK    7  A    between atoms: N_20  and  C_19 
REMARK       I    between atoms: C_22  and  N_20 
ROOT
ATOM      1  C   LIG d   1      -3.169  89.979 117.696  0.00  0.00     0.161 C 
ATOM      2  C   LIG d   1      -4.344  89.729 116.968  0.00  0.00     0.016 C 
ATOM      3  C   LIG d   1      -5.343  90.704 116.743  0.00  0.00     0.038 C 
ATOM      4  C   LIG d   1      -5.163  92.047 117.105  0.00  0.00     0.028 C 
ATOM      5  C   LIG d   1      -4.216  92.234 118.286  0.00  0.00    -0.047 C 
ATOM      6  C   LIG d   1      -2.903  91.468 118.003  0.00  0.00     0.091 C 
ENDROOT
BRANCH   1   7
ATOM      7  O   LIG d   1      -2.039  89.399 117.015  0.00  0.00    -0.368 OA
BRANCH   7   8
ATOM      8  C   LIG d   1      -1.281  88.415 117.761  0.00  0.00     0.119 C 
BRANCH   8   9
ATOM      9  C   LIG d   1      -0.802  87.345 116.761  0.00  0.00     0.028 C 
ATOM     10  C   LIG d   1       0.666  86.945 116.987  0.00  0.00     0.006 C 
ENDBRANCH   8   9
BRANCH   8  11
ATOM     11  C   LIG d   1      -2.169  87.668 118.760  0.00  0.00     0.028 C 
ATOM     12  C   LIG d   1      -1.519  87.527 120.145  0.00  0.00     0.006 C 
ENDBRANCH   8  11
ENDBRANCH   7   8
ENDBRANCH   1   7
BRANCH   6  13
ATOM     13  N   LIG d   1      -1.954  91.529 119.145  0.00  0.00    -0.311 N 
ATOM     14  C   LIG d   1      -2.259  91.118 120.375  0.00  0.00     0.210 C 
ATOM     15  C   LIG d   1      -1.142  91.288 121.409  0.00  0.00     0.109 C 
ATOM     16  O   LIG d   1      -3.337  90.600 120.700  0.00  0.00    -0.276 OA
ATOM     17  H   LIG d   1      -1.045  91.907 118.963  0.00  0.00     0.149 HD
ENDBRANCH   6  13
BRANCH   5  18
ATOM     18  N   LIG d   1      -4.011  93.683 118.468  0.00  0.00     0.381 N 
ATOM     19  H   LIG d   1      -3.633  94.080 117.631  0.00  0.00    -0.090 HD
ATOM     20  H   LIG d   1      -3.351  93.828 119.212  0.00  0.00    -0.090 HD
ATOM     21  H   LIG d   1      -4.876  94.124 118.692  0.00  0.00    -0.090 HD
ENDBRANCH   5  18
BRANCH   3  22
ATOM     22  C   LIG d   1      -6.555  90.329 116.185  0.00  0.00     0.382 C 
ATOM     23  O   LIG d   1      -7.016  89.181 116.398  0.00  0.00    -0.241 OA
ATOM     24  O   LIG d   1      -7.173  91.108 115.434  0.00  0.00    -0.241 OA
ENDBRANCH   3  22
TORSDOF 7
ENDMDL
