MODEL 1
REMARK VINA RESULT:      -5.4      0.000      0.000
REMARK  7 active torsions:
REMARK  status: ('A' for Active; 'I' for Inactive)
REMARK    1  A    between atoms: C_2  and  C_3 
REMARK    2  A    between atoms: C_3  and  O_6 
REMARK    3  A    between atoms: C_3  and  C_4 
REMARK    4  A    between atoms: C_7  and  O_6 
REMARK    5  A    between atoms: C_9  and  C_10 
REMARK    6  A    between atoms: N_15  and  C_14 
REMARK    7  A    between atoms: N_20  and  C_19 
REMARK       I    between atoms: C_22  and  N_20 
ROOT
ATOM      1  C   LIG d   1      -5.561  92.690 118.375  0.00  0.00     0.161 C 
ATOM      2  C   LIG d   1      -5.957  91.583 117.606  0.00  0.00     0.016 C 
ATOM      3  C   LIG d   1      -7.173  91.531 116.886  0.00  0.00     0.038 C 
ATOM      4  C   LIG d   1      -8.010  92.649 116.763  0.00  0.00     0.028 C 
ATOM      5  C   LIG d   1      -7.899  93.621 117.933  0.00  0.00    -0.047 C 
ATOM      6  C   LIG d   1      -6.409  93.961 118.163  0.00  0.00     0.091 C 
ENDROOT
BRANCH   1   7
ATOM      7  O   LIG d   1      -4.167  92.973 118.142  0.00  0.00    -0.368 OA
BRANCH   7   8
ATOM      8  C   LIG d   1      -3.246  92.528 119.169  0.00  0.00     0.119 C 
BRANCH   8   9
ATOM      9  C   LIG d   1      -2.458  93.762 119.650  0.00  0.00     0.028 C 
ATOM     10  C   LIG d   1      -2.471  94.904 118.620  0.00  0.00     0.006 C 
ENDBRANCH   8   9
BRANCH   8  11
ATOM     11  C   LIG d   1      -2.195  91.572 118.598  0.00  0.00     0.028 C 
ATOM     12  C   LIG d   1      -2.676  90.113 118.557  0.00  0.00     0.006 C 
ENDBRANCH   8  11
ENDBRANCH   7   8
ENDBRANCH   1   7
BRANCH   6  13
ATOM     13  N   LIG d   1      -6.204  94.841 119.344  0.00  0.00    -0.311 N 
ATOM     14  C   LIG d   1      -6.288  96.169 119.292  0.00  0.00     0.210 C 
ATOM     15  C   LIG d   1      -6.022  96.886 120.619  0.00  0.00     0.109 C 
ATOM     16  O   LIG d   1      -6.590  96.820 118.280  0.00  0.00    -0.276 OA
ATOM     17  H   LIG d   1      -5.987  94.394 120.213  0.00  0.00     0.149 HD
ENDBRANCH   6  13
BRANCH   5  18
ATOM     18  N   LIG d   1      -8.720  94.803 117.610  0.00  0.00     0.381 N 
ATOM     19  H   LIG d   1      -8.505  95.548 118.243  0.00  0.00    -0.090 HD
ATOM     20  H   LIG d   1      -9.690  94.566 117.720  0.00  0.00    -0.090 HD
ATOM     21  H   LIG d   1      -8.545  95.094 116.673  0.00  0.00    -0.090 HD
ENDBRANCH   5  18
BRANCH   3  22
ATOM     22  C   LIG d   1      -7.581  90.336 116.312  0.00  0.00     0.382 C 
ATOM     23  O   LIG d   1      -8.772  89.961 116.425  0.00  0.00    -0.241 OA
ATOM     24  O   LIG d   1      -6.762  89.608 115.720  0.00  0.00    -0.241 OA
ENDBRANCH   3  22
TORSDOF 7
ENDMDL
MODEL 2
REMARK VINA RESULT:      -5.1      1.824      2.643
REMARK  7 active torsions:
REMARK  status: ('A' for Active; 'I' for Inactive)
REMARK    1  A    between atoms: C_2  and  C_3 
REMARK    2  A    between atoms: C_3  and  O_6 
REMARK    3  A    between atoms: C_3  and  C_4 
REMARK    4  A    between atoms: C_7  and  O_6 
REMARK    5  A    between atoms: C_9  and  C_10 
REMARK    6  A    between atoms: N_15  and  C_14 
REMARK    7  A    between atoms: N_20  and  C_19 
REMARK       I    between atoms: C_22  and  N_20 
ROOT
ATOM      1  C   LIG d   1      -4.467  91.670 118.295  0.00  0.00     0.161 C 
ATOM      2  C   LIG d   1      -5.143  90.922 117.317  0.00  0.00     0.016 C 
ATOM      3  C   LIG d   1      -6.251  91.414 116.590  0.00  0.00     0.038 C 
ATOM      4  C   LIG d   1      -6.667  92.750 116.686  0.00  0.00     0.028 C 
ATOM      5  C   LIG d   1      -6.334  93.393 118.029  0.00  0.00    -0.047 C 
ATOM      6  C   LIG d   1      -4.836  93.167 118.335  0.00  0.00     0.091 C 
ENDROOT
BRANCH   1   7
ATOM      7  O   LIG d   1      -3.043  91.509 118.136  0.00  0.00    -0.368 OA
BRANCH   7   8
ATOM      8  C   LIG d   1      -2.516  90.187 118.408  0.00  0.00     0.119 C 
BRANCH   8   9
ATOM      9  C   LIG d   1      -2.511  89.997 119.937  0.00  0.00     0.028 C 
ATOM     10  C   LIG d   1      -2.891  88.565 120.352  0.00  0.00     0.006 C 
ENDBRANCH   8   9
BRANCH   8  11
ATOM     11  C   LIG d   1      -1.050  90.072 117.980  0.00  0.00     0.028 C 
ATOM     12  C   LIG d   1      -0.256  91.365 118.223  0.00  0.00     0.006 C 
ENDBRANCH   8  11
ENDBRANCH   7   8
ENDBRANCH   1   7
BRANCH   6  13
ATOM     13  N   LIG d   1      -4.445  93.692 119.670  0.00  0.00    -0.311 N 
ATOM     14  C   LIG d   1      -3.560  94.672 119.842  0.00  0.00     0.210 C 
ATOM     15  C   LIG d   1      -3.287  95.047 121.302  0.00  0.00     0.109 C 
ATOM     16  O   LIG d   1      -3.000  95.288 118.923  0.00  0.00    -0.276 OA
ATOM     17  H   LIG d   1      -4.876  93.270 120.469  0.00  0.00     0.149 HD
ENDBRANCH   6  13
BRANCH   5  18
ATOM     18  N   LIG d   1      -6.698  94.820 117.942  0.00  0.00     0.381 N 
ATOM     19  H   LIG d   1      -5.900  95.357 117.670  0.00  0.00    -0.090 HD
ATOM     20  H   LIG d   1      -6.996  95.135 118.849  0.00  0.00    -0.090 HD
ATOM     21  H   LIG d   1      -7.433  94.945 117.281  0.00  0.00    -0.090 HD
ENDBRANCH   5  18
BRANCH   3  22
ATOM     22  C   LIG d   1      -6.981  90.553 115.784  0.00  0.00     0.382 C 
ATOM     23  O   LIG d   1      -8.145  90.861 115.431  0.00  0.00    -0.241 OA
ATOM     24  O   LIG d   1      -6.507  89.453 115.443  0.00  0.00    -0.241 OA
ENDBRANCH   3  22
TORSDOF 7
ENDMDL
MODEL 3
REMARK VINA RESULT:      -5.1      2.042      4.330
REMARK  7 active torsions:
REMARK  status: ('A' for Active; 'I' for Inactive)
REMARK    1  A    between atoms: C_2  and  C_3 
REMARK    2  A    between atoms: C_3  and  O_6 
REMARK    3  A    between atoms: C_3  and  C_4 
REMARK    4  A    between atoms: C_7  and  O_6 
REMARK    5  A    between atoms: C_9  and  C_10 
REMARK    6  A    between atoms: N_15  and  C_14 
REMARK    7  A    between atoms: N_20  and  C_19 
REMARK       I    between atoms: C_22  and  N_20 
ROOT
ATOM      1  C   LIG d   1      -6.363  93.735 118.256  0.00  0.00     0.161 C 
ATOM      2  C   LIG d   1      -7.091  92.668 117.705  0.00  0.00     0.016 C 
ATOM      3  C   LIG d   1      -6.497  91.459 117.277  0.00  0.00     0.038 C 
ATOM      4  C   LIG d   1      -5.144  91.174 117.513  0.00  0.00     0.028 C 
ATOM      5  C   LIG d   1      -4.270  92.420 117.609  0.00  0.00    -0.047 C 
ATOM      6  C   LIG d   1      -4.902  93.400 118.624  0.00  0.00     0.091 C 
ENDROOT
BRANCH   1   7
ATOM      7  O   LIG d   1      -7.060  94.262 119.403  0.00  0.00    -0.368 OA
BRANCH   7   8
ATOM      8  C   LIG d   1      -8.087  95.246 119.128  0.00  0.00     0.119 C 
BRANCH   8   9
ATOM      9  C   LIG d   1      -7.437  96.376 118.306  0.00  0.00     0.028 C 
ATOM     10  C   LIG d   1      -6.619  97.341 119.181  0.00  0.00     0.006 C 
ENDBRANCH   8   9
BRANCH   8  11
ATOM     11  C   LIG d   1      -8.580  95.912 120.416  0.00  0.00     0.028 C 
ATOM     12  C   LIG d   1      -9.728  95.140 121.084  0.00  0.00     0.006 C 
ENDBRANCH   8  11
ENDBRANCH   7   8
ENDBRANCH   1   7
BRANCH   6  13
ATOM     13  N   LIG d   1      -4.155  94.681 118.715  0.00  0.00    -0.311 N 
ATOM     14  C   LIG d   1      -3.212  94.916 119.625  0.00  0.00     0.210 C 
ATOM     15  C   LIG d   1      -2.580  96.311 119.557  0.00  0.00     0.109 C 
ATOM     16  O   LIG d   1      -2.815  94.092 120.462  0.00  0.00    -0.276 OA
ATOM     17  H   LIG d   1      -4.392  95.395 118.055  0.00  0.00     0.149 HD
ENDBRANCH   6  13
BRANCH   5  18
ATOM     18  N   LIG d   1      -2.914  91.985 117.993  0.00  0.00     0.381 N 
ATOM     19  H   LIG d   1      -2.957  91.445 118.834  0.00  0.00    -0.090 HD
ATOM     20  H   LIG d   1      -2.349  92.797 118.168  0.00  0.00    -0.090 HD
ATOM     21  H   LIG d   1      -2.510  91.442 117.262  0.00  0.00    -0.090 HD
ENDBRANCH   5  18
BRANCH   3  22
ATOM     22  C   LIG d   1      -7.251  90.535 116.569  0.00  0.00     0.382 C 
ATOM     23  O   LIG d   1      -8.499  90.520 116.691  0.00  0.00    -0.241 OA
ATOM     24  O   LIG d   1      -6.694  89.689 115.844  0.00  0.00    -0.241 OA
ENDBRANCH   3  22
TORSDOF 7
ENDMDL
MODEL 4
REMARK VINA RESULT:      -5.1      0.755      1.677
REMARK  7 active torsions:
REMARK  status: ('A' for Active; 'I' for Inactive)
REMARK    1  A    between atoms: C_2  and  C_3 
REMARK    2  A    between atoms: C_3  and  O_6 
REMARK    3  A    between atoms: C_3  and  C_4 
REMARK    4  A    between atoms: C_7  and  O_6 
REMARK    5  A    between atoms: C_9  and  C_10 
REMARK    6  A    between atoms: N_15  and  C_14 
REMARK    7  A    between atoms: N_20  and  C_19 
REMARK       I    between atoms: C_22  and  N_20 
ROOT
ATOM      1  C   LIG d   1      -5.548  92.825 118.371  0.00  0.00     0.161 C 
ATOM      2  C   LIG d   1      -5.913  91.700 117.613  0.00  0.00     0.016 C 
ATOM      3  C   LIG d   1      -7.135  91.600 116.908  0.00  0.00     0.038 C 
ATOM      4  C   LIG d   1      -8.013  92.687 116.790  0.00  0.00     0.028 C 
ATOM      5  C   LIG d   1      -7.923  93.668 117.954  0.00  0.00    -0.047 C 
ATOM      6  C   LIG d   1      -6.444  94.064 118.164  0.00  0.00     0.091 C 
ENDROOT
BRANCH   1   7
ATOM      7  O   LIG d   1      -4.168  93.157 118.119  0.00  0.00    -0.368 OA
BRANCH   7   8
ATOM      8  C   LIG d   1      -3.204  92.637 119.068  0.00  0.00     0.119 C 
BRANCH   8   9
ATOM      9  C   LIG d   1      -3.931  92.453 120.414  0.00  0.00     0.028 C 
ATOM     10  C   LIG d   1      -3.438  91.217 121.184  0.00  0.00     0.006 C 
ENDBRANCH   8   9
BRANCH   8  11
ATOM     11  C   LIG d   1      -2.090  93.652 119.344  0.00  0.00     0.028 C 
ATOM     12  C   LIG d   1      -2.623  94.987 119.888  0.00  0.00     0.006 C 
ENDBRANCH   8  11
ENDBRANCH   7   8
ENDBRANCH   1   7
BRANCH   6  13
ATOM     13  N   LIG d   1      -6.256  94.956 119.337  0.00  0.00    -0.311 N 
ATOM     14  C   LIG d   1      -6.350  96.283 119.271  0.00  0.00     0.210 C 
ATOM     15  C   LIG d   1      -6.101  97.016 120.594  0.00  0.00     0.109 C 
ATOM     16  O   LIG d   1      -6.648  96.921 118.250  0.00  0.00    -0.276 OA
ATOM     17  H   LIG d   1      -6.043  94.520 120.213  0.00  0.00     0.149 HD
ENDBRANCH   6  13
BRANCH   5  18
ATOM     18  N   LIG d   1      -8.790  94.819 117.636  0.00  0.00     0.381 N 
ATOM     19  H   LIG d   1      -8.705  95.048 116.666  0.00  0.00    -0.090 HD
ATOM     20  H   LIG d   1      -8.489  95.611 118.175  0.00  0.00    -0.090 HD
ATOM     21  H   LIG d   1      -9.738  94.601 117.851  0.00  0.00    -0.090 HD
ENDBRANCH   5  18
BRANCH   3  22
ATOM     22  C   LIG d   1      -7.506  90.389 116.345  0.00  0.00     0.382 C 
ATOM     23  O   LIG d   1      -8.694  89.996 116.430  0.00  0.00    -0.241 OA
ATOM     24  O   LIG d   1      -6.658  89.663 115.793  0.00  0.00    -0.241 OA
ENDBRANCH   3  22
TORSDOF 7
ENDMDL
MODEL 5
REMARK VINA RESULT:      -4.9      2.619      4.655
REMARK  7 active torsions:
REMARK  status: ('A' for Active; 'I' for Inactive)
REMARK    1  A    between atoms: C_2  and  C_3 
REMARK    2  A    between atoms: C_3  and  O_6 
REMARK    3  A    between atoms: C_3  and  C_4 
REMARK    4  A    between atoms: C_7  and  O_6 
REMARK    5  A    between atoms: C_9  and  C_10 
REMARK    6  A    between atoms: N_15  and  C_14 
REMARK    7  A    between atoms: N_20  and  C_19 
REMARK       I    between atoms: C_22  and  N_20 
ROOT
ATOM      1  C   LIG d   1      -4.688  93.494 118.993  0.00  0.00     0.161 C 
ATOM      2  C   LIG d   1      -5.856  94.271 118.917  0.00  0.00     0.016 C 
ATOM      3  C   LIG d   1      -6.950  93.951 118.081  0.00  0.00     0.038 C 
ATOM      4  C   LIG d   1      -7.013  92.742 117.373  0.00  0.00     0.028 C 
ATOM      5  C   LIG d   1      -5.643  92.170 117.027  0.00  0.00    -0.047 C 
ATOM      6  C   LIG d   1      -4.784  92.113 118.312  0.00  0.00     0.091 C 
ENDROOT
BRANCH   1   7
ATOM      7  O   LIG d   1      -4.288  93.347 120.370  0.00  0.00    -0.368 OA
BRANCH   7   8
ATOM      8  C   LIG d   1      -4.817  92.193 121.067  0.00  0.00     0.119 C 
BRANCH   8   9
ATOM      9  C   LIG d   1      -5.808  92.707 122.129  0.00  0.00     0.028 C 
ATOM     10  C   LIG d   1      -5.391  94.069 122.710  0.00  0.00     0.006 C 
ENDBRANCH   8   9
BRANCH   8  11
ATOM     11  C   LIG d   1      -3.722  91.466 121.853  0.00  0.00     0.028 C 
ATOM     12  C   LIG d   1      -2.309  91.957 121.500  0.00  0.00     0.006 C 
ENDBRANCH   8  11
ENDBRANCH   7   8
ENDBRANCH   1   7
BRANCH   6  13
ATOM     13  N   LIG d   1      -3.399  91.644 118.048  0.00  0.00    -0.311 N 
ATOM     14  C   LIG d   1      -2.999  90.390 118.249  0.00  0.00     0.210 C 
ATOM     15  C   LIG d   1      -1.524  90.123 117.932  0.00  0.00     0.109 C 
ATOM     16  O   LIG d   1      -3.733  89.466 118.629  0.00  0.00    -0.276 OA
ATOM     17  H   LIG d   1      -2.745  92.322 117.707  0.00  0.00     0.149 HD
ENDBRANCH   6  13
BRANCH   5  18
ATOM     18  N   LIG d   1      -5.854  90.845 116.414  0.00  0.00     0.381 N 
ATOM     19  H   LIG d   1      -5.876  90.142 117.126  0.00  0.00    -0.090 HD
ATOM     20  H   LIG d   1      -5.086  90.646 115.798  0.00  0.00    -0.090 HD
ATOM     21  H   LIG d   1      -6.709  90.838 115.904  0.00  0.00    -0.090 HD
ENDBRANCH   5  18
BRANCH   3  22
ATOM     22  C   LIG d   1      -7.980  94.865 117.917  0.00  0.00     0.382 C 
ATOM     23  O   LIG d   1      -9.160  94.462 117.778  0.00  0.00    -0.241 OA
ATOM     24  O   LIG d   1      -7.738  96.086 117.861  0.00  0.00    -0.241 OA
ENDBRANCH   3  22
TORSDOF 7
ENDMDL
MODEL 6
REMARK VINA RESULT:      -4.6      1.934      2.783
REMARK  7 active torsions:
REMARK  status: ('A' for Active; 'I' for Inactive)
REMARK    1  A    between atoms: C_2  and  C_3 
REMARK    2  A    between atoms: C_3  and  O_6 
REMARK    3  A    between atoms: C_3  and  C_4 
REMARK    4  A    between atoms: C_7  and  O_6 
REMARK    5  A    between atoms: C_9  and  C_10 
REMARK    6  A    between atoms: N_15  and  C_14 
REMARK    7  A    between atoms: N_20  and  C_19 
REMARK       I    between atoms: C_22  and  N_20 
ROOT
ATOM      1  C   LIG d   1      -5.843  93.653 119.708  0.00  0.00     0.161 C 
ATOM      2  C   LIG d   1      -5.440  92.711 118.746  0.00  0.00     0.016 C 
ATOM      3  C   LIG d   1      -6.059  92.575 117.483  0.00  0.00     0.038 C 
ATOM      4  C   LIG d   1      -7.033  93.480 117.033  0.00  0.00     0.028 C 
ATOM      5  C   LIG d   1      -7.822  94.132 118.163  0.00  0.00    -0.047 C 
ATOM      6  C   LIG d   1      -6.830  94.722 119.192  0.00  0.00     0.091 C 
ENDROOT
BRANCH   1   7
ATOM      7  O   LIG d   1      -4.685  94.282 120.292  0.00  0.00    -0.368 OA
BRANCH   7   8
ATOM      8  C   LIG d   1      -3.835  95.024 119.382  0.00  0.00     0.119 C 
BRANCH   8   9
ATOM      9  C   LIG d   1      -2.377  94.630 119.686  0.00  0.00     0.028 C 
ATOM     10  C   LIG d   1      -2.278  93.484 120.707  0.00  0.00     0.006 C 
ENDBRANCH   8   9
BRANCH   8  11
ATOM     11  C   LIG d   1      -3.913  96.530 119.651  0.00  0.00     0.028 C 
ATOM     12  C   LIG d   1      -4.200  96.858 121.125  0.00  0.00     0.006 C 
ENDBRANCH   8  11
ENDBRANCH   7   8
ENDBRANCH   1   7
BRANCH   6  13
ATOM     13  N   LIG d   1      -7.518  95.306 120.373  0.00  0.00    -0.311 N 
ATOM     14  C   LIG d   1      -7.879  96.585 120.452  0.00  0.00     0.210 C 
ATOM     15  C   LIG d   1      -8.558  96.985 121.766  0.00  0.00     0.109 C 
ATOM     16  O   LIG d   1      -7.730  97.420 119.547  0.00  0.00    -0.276 OA
ATOM     17  H   LIG d   1      -7.706  94.692 121.141  0.00  0.00     0.149 HD
ENDBRANCH   6  13
BRANCH   5  18
ATOM     18  N   LIG d   1      -8.703  95.150 117.561  0.00  0.00     0.381 N 
ATOM     19  H   LIG d   1      -8.472  96.055 117.921  0.00  0.00    -0.090 HD
ATOM     20  H   LIG d   1      -9.655  94.945 117.811  0.00  0.00    -0.090 HD
ATOM     21  H   LIG d   1      -8.604  95.144 116.570  0.00  0.00    -0.090 HD
ENDBRANCH   5  18
BRANCH   3  22
ATOM     22  C   LIG d   1      -5.734  91.500 116.670  0.00  0.00     0.382 C 
ATOM     23  O   LIG d   1      -6.030  91.523 115.451  0.00  0.00    -0.241 OA
ATOM     24  O   LIG d   1      -5.187  90.489 117.149  0.00  0.00    -0.241 OA
ENDBRANCH   3  22
TORSDOF 7
ENDMDL
MODEL 7
REMARK VINA RESULT:      -4.5      2.520      4.494
REMARK  7 active torsions:
REMARK  status: ('A' for Active; 'I' for Inactive)
REMARK    1  A    between atoms: C_2  and  C_3 
REMARK    2  A    between atoms: C_3  and  O_6 
REMARK    3  A    between atoms: C_3  and  C_4 
REMARK    4  A    between atoms: C_7  and  O_6 
REMARK    5  A    between atoms: C_9  and  C_10 
REMARK    6  A    between atoms: N_15  and  C_14 
REMARK    7  A    between atoms: N_20  and  C_19 
REMARK       I    between atoms: C_22  and  N_20 
ROOT
ATOM      1  C   LIG d   1      -4.525  93.942 118.842  0.00  0.00     0.161 C 
ATOM      2  C   LIG d   1      -5.867  94.349 118.757  0.00  0.00     0.016 C 
ATOM      3  C   LIG d   1      -6.847  93.651 118.014  0.00  0.00     0.038 C 
ATOM      4  C   LIG d   1      -6.582  92.406 117.424  0.00  0.00     0.028 C 
ATOM      5  C   LIG d   1      -5.114  92.208 117.060  0.00  0.00    -0.047 C 
ATOM      6  C   LIG d   1      -4.243  92.526 118.297  0.00  0.00     0.091 C 
ENDROOT
BRANCH   1   7
ATOM      7  O   LIG d   1      -4.065  94.055 120.203  0.00  0.00    -0.368 OA
BRANCH   7   8
ATOM      8  C   LIG d   1      -2.928  94.927 120.421  0.00  0.00     0.119 C 
BRANCH   8   9
ATOM      9  C   LIG d   1      -3.307  95.909 121.546  0.00  0.00     0.028 C 
ATOM     10  C   LIG d   1      -4.311  96.977 121.079  0.00  0.00     0.006 C 
ENDBRANCH   8   9
BRANCH   8  11
ATOM     11  C   LIG d   1      -2.653  95.801 119.195  0.00  0.00     0.028 C 
ATOM     12  C   LIG d   1      -1.176  95.781 118.768  0.00  0.00     0.006 C 
ENDBRANCH   8  11
ENDBRANCH   7   8
ENDBRANCH   1   7
BRANCH   6  13
ATOM     13  N   LIG d   1      -2.789  92.439 118.003  0.00  0.00    -0.311 N 
ATOM     14  C   LIG d   1      -1.929  91.756 118.756  0.00  0.00     0.210 C 
ATOM     15  C   LIG d   1      -0.471  91.813 118.287  0.00  0.00     0.109 C 
ATOM     16  O   LIG d   1      -2.239  91.081 119.750  0.00  0.00    -0.276 OA
ATOM     17  H   LIG d   1      -2.456  92.931 117.197  0.00  0.00     0.149 HD
ENDBRANCH   6  13
BRANCH   5  18
ATOM     18  N   LIG d   1      -4.957  90.821 116.583  0.00  0.00     0.381 N 
ATOM     19  H   LIG d   1      -5.052  90.186 117.351  0.00  0.00    -0.090 HD
ATOM     20  H   LIG d   1      -4.035  90.713 116.197  0.00  0.00    -0.090 HD
ATOM     21  H   LIG d   1      -5.642  90.619 115.889  0.00  0.00    -0.090 HD
ENDBRANCH   5  18
BRANCH   3  22
ATOM     22  C   LIG d   1      -8.097  94.218 117.821  0.00  0.00     0.382 C 
ATOM     23  O   LIG d   1      -9.038  93.523 117.367  0.00  0.00    -0.241 OA
ATOM     24  O   LIG d   1      -8.285  95.427 118.054  0.00  0.00    -0.241 OA
ENDBRANCH   3  22
TORSDOF 7
ENDMDL
MODEL 8
REMARK VINA RESULT:      -4.5      2.430      4.431
REMARK  7 active torsions:
REMARK  status: ('A' for Active; 'I' for Inactive)
REMARK    1  A    between atoms: C_2  and  C_3 
REMARK    2  A    between atoms: C_3  and  O_6 
REMARK    3  A    between atoms: C_3  and  C_4 
REMARK    4  A    between atoms: C_7  and  O_6 
REMARK    5  A    between atoms: C_9  and  C_10 
REMARK    6  A    between atoms: N_15  and  C_14 
REMARK    7  A    between atoms: N_20  and  C_19 
REMARK       I    between atoms: C_22  and  N_20 
ROOT
ATOM      1  C   LIG d   1      -4.572  93.536 118.453  0.00  0.00     0.161 C 
ATOM      2  C   LIG d   1      -5.925  93.347 118.124  0.00  0.00     0.016 C 
ATOM      3  C   LIG d   1      -6.439  92.133 117.614  0.00  0.00     0.038 C 
ATOM      4  C   LIG d   1      -5.659  90.969 117.541  0.00  0.00     0.028 C 
ATOM      5  C   LIG d   1      -4.168  91.249 117.387  0.00  0.00    -0.047 C 
ATOM      6  C   LIG d   1      -3.728  92.245 118.485  0.00  0.00     0.091 C 
ENDROOT
BRANCH   1   7
ATOM      7  O   LIG d   1      -4.468  94.234 119.710  0.00  0.00    -0.368 OA
BRANCH   7   8
ATOM      8  C   LIG d   1      -4.294  95.670 119.629  0.00  0.00     0.119 C 
BRANCH   8   9
ATOM      9  C   LIG d   1      -2.800  95.969 119.864  0.00  0.00     0.028 C 
ATOM     10  C   LIG d   1      -2.055  96.296 118.560  0.00  0.00     0.006 C 
ENDBRANCH   8   9
BRANCH   8  11
ATOM     11  C   LIG d   1      -5.034  96.386 120.763  0.00  0.00     0.028 C 
ATOM     12  C   LIG d   1      -6.487  95.911 120.919  0.00  0.00     0.006 C 
ENDBRANCH   8  11
ENDBRANCH   7   8
ENDBRANCH   1   7
BRANCH   6  13
ATOM     13  N   LIG d   1      -2.301  92.637 118.355  0.00  0.00    -0.311 N 
ATOM     14  C   LIG d   1      -1.415  92.521 119.343  0.00  0.00     0.210 C 
ATOM     15  C   LIG d   1      -0.001  93.003 119.005  0.00  0.00     0.109 C 
ATOM     16  O   LIG d   1      -1.659  92.035 120.458  0.00  0.00    -0.276 OA
ATOM     17  H   LIG d   1      -2.009  93.012 117.473  0.00  0.00     0.149 HD
ENDBRANCH   6  13
BRANCH   5  18
ATOM     18  N   LIG d   1      -3.462  89.956 117.463  0.00  0.00     0.381 N 
ATOM     19  H   LIG d   1      -2.517  90.067 117.153  0.00  0.00    -0.090 HD
ATOM     20  H   LIG d   1      -3.918  89.300 116.854  0.00  0.00    -0.090 HD
ATOM     21  H   LIG d   1      -3.474  89.615 118.399  0.00  0.00    -0.090 HD
ENDBRANCH   5  18
BRANCH   3  22
ATOM     22  C   LIG d   1      -7.739  92.085 117.134  0.00  0.00     0.382 C 
ATOM     23  O   LIG d   1      -8.411  93.140 117.036  0.00  0.00    -0.241 OA
ATOM     24  O   LIG d   1      -8.264  90.995 116.839  0.00  0.00    -0.241 OA
ENDBRANCH   3  22
TORSDOF 7
ENDMDL
MODEL 9
REMARK VINA RESULT:      -4.4      2.144      4.645
REMARK  7 active torsions:
REMARK  status: ('A' for Active; 'I' for Inactive)
REMARK    1  A    between atoms: C_2  and  C_3 
REMARK    2  A    between atoms: C_3  and  O_6 
REMARK    3  A    between atoms: C_3  and  C_4 
REMARK    4  A    between atoms: C_7  and  O_6 
REMARK    5  A    between atoms: C_9  and  C_10 
REMARK    6  A    between atoms: N_15  and  C_14 
REMARK    7  A    between atoms: N_20  and  C_19 
REMARK       I    between atoms: C_22  and  N_20 
ROOT
ATOM      1  C   LIG d   1      -4.872  92.827 118.244  0.00  0.00     0.161 C 
ATOM      2  C   LIG d   1      -4.420  91.497 118.216  0.00  0.00     0.016 C 
ATOM      3  C   LIG d   1      -3.316  91.034 118.969  0.00  0.00     0.038 C 
ATOM      4  C   LIG d   1      -2.679  91.840 119.923  0.00  0.00     0.028 C 
ATOM      5  C   LIG d   1      -2.777  93.331 119.618  0.00  0.00    -0.047 C 
ATOM      6  C   LIG d   1      -4.258  93.695 119.363  0.00  0.00     0.091 C 
ENDROOT
BRANCH   1   7
ATOM      7  O   LIG d   1      -6.311  92.853 118.322  0.00  0.00    -0.368 OA
BRANCH   7   8
ATOM      8  C   LIG d   1      -7.002  93.385 117.166  0.00  0.00     0.119 C 
BRANCH   8   9
ATOM      9  C   LIG d   1      -8.399  93.840 117.631  0.00  0.00     0.028 C 
ATOM     10  C   LIG d   1      -8.333  94.817 118.817  0.00  0.00     0.006 C 
ENDBRANCH   8   9
BRANCH   8  11
ATOM     11  C   LIG d   1      -7.258  92.296 116.120  0.00  0.00     0.028 C 
ATOM     12  C   LIG d   1      -7.738  90.974 116.741  0.00  0.00     0.006 C 
ENDBRANCH   8  11
ENDBRANCH   7   8
ENDBRANCH   1   7
BRANCH   6  13
ATOM     13  N   LIG d   1      -4.434  95.118 118.975  0.00  0.00    -0.311 N 
ATOM     14  C   LIG d   1      -5.032  96.021 119.750  0.00  0.00     0.210 C 
ATOM     15  C   LIG d   1      -5.126  97.428 119.151  0.00  0.00     0.109 C 
ATOM     16  O   LIG d   1      -5.466  95.798 120.890  0.00  0.00    -0.276 OA
ATOM     17  H   LIG d   1      -4.083  95.394 118.078  0.00  0.00     0.149 HD
ENDBRANCH   6  13
BRANCH   5  18
ATOM     18  N   LIG d   1      -2.192  94.059 120.760  0.00  0.00     0.381 N 
ATOM     19  H   LIG d   1      -2.458  93.616 121.617  0.00  0.00    -0.090 HD
ATOM     20  H   LIG d   1      -2.551  94.998 120.766  0.00  0.00    -0.090 HD
ATOM     21  H   LIG d   1      -1.199  94.076 120.681  0.00  0.00    -0.090 HD
ENDBRANCH   5  18
BRANCH   3  22
ATOM     22  C   LIG d   1      -2.815  89.761 118.741  0.00  0.00     0.382 C 
ATOM     23  O   LIG d   1      -1.741  89.614 118.109  0.00  0.00    -0.241 OA
ATOM     24  O   LIG d   1      -3.445  88.756 119.121  0.00  0.00    -0.241 OA
ENDBRANCH   3  22
TORSDOF 7
ENDMDL
