MODEL 1
REMARK VINA RESULT:      -4.8      0.000      0.000
REMARK  7 active torsions:
REMARK  status: ('A' for Active; 'I' for Inactive)
REMARK    1  A    between atoms: C_2  and  C_3 
REMARK    2  A    between atoms: C_3  and  O_6 
REMARK    3  A    between atoms: C_3  and  C_4 
REMARK    4  A    between atoms: C_7  and  O_6 
REMARK    5  A    between atoms: C_9  and  C_10 
REMARK    6  A    between atoms: N_15  and  C_14 
REMARK    7  A    between atoms: N_20  and  C_19 
REMARK       I    between atoms: C_22  and  N_20 
ROOT
ATOM      1  C   LIG d   1      -4.608  93.118 119.121  0.00  0.00     0.161 C 
ATOM      2  C   LIG d   1      -5.831  93.790 119.284  0.00  0.00     0.016 C 
ATOM      3  C   LIG d   1      -6.930  93.630 118.409  0.00  0.00     0.038 C 
ATOM      4  C   LIG d   1      -6.931  92.666 117.390  0.00  0.00     0.028 C 
ATOM      5  C   LIG d   1      -5.536  92.325 116.876  0.00  0.00    -0.047 C 
ATOM      6  C   LIG d   1      -4.630  91.980 118.080  0.00  0.00     0.091 C 
ENDROOT
BRANCH   1   7
ATOM      7  O   LIG d   1      -4.148  92.624 120.394  0.00  0.00    -0.368 OA
BRANCH   7   8
ATOM      8  C   LIG d   1      -2.956  93.251 120.928  0.00  0.00     0.119 C 
BRANCH   8   9
ATOM      9  C   LIG d   1      -2.462  94.271 119.885  0.00  0.00     0.028 C 
ATOM     10  C   LIG d   1      -1.007  94.016 119.457  0.00  0.00     0.006 C 
ENDBRANCH   8   9
BRANCH   8  11
ATOM     11  C   LIG d   1      -1.815  92.240 121.078  0.00  0.00     0.028 C 
ATOM     12  C   LIG d   1      -2.304  90.849 121.513  0.00  0.00     0.006 C 
ENDBRANCH   8  11
ENDBRANCH   7   8
ENDBRANCH   1   7
BRANCH   6  13
ATOM     13  N   LIG d   1      -3.225  91.715 117.673  0.00  0.00    -0.311 N 
ATOM     14  C   LIG d   1      -2.625  90.536 117.831  0.00  0.00     0.210 C 
ATOM     15  C   LIG d   1      -1.168  90.484 117.363  0.00  0.00     0.109 C 
ATOM     16  O   LIG d   1      -3.172  89.520 118.285  0.00  0.00    -0.276 OA
ATOM     17  H   LIG d   1      -2.716  92.476 117.268  0.00  0.00     0.149 HD
ENDBRANCH   6  13
BRANCH   5  18
ATOM     18  N   LIG d   1      -5.674  91.212 115.918  0.00  0.00     0.381 N 
ATOM     19  H   LIG d   1      -6.137  90.441 116.358  0.00  0.00    -0.090 HD
ATOM     20  H   LIG d   1      -4.758  90.910 115.637  0.00  0.00    -0.090 HD
ATOM     21  H   LIG d   1      -6.193  91.510 115.122  0.00  0.00    -0.090 HD
ENDBRANCH   5  18
BRANCH   3  22
ATOM     22  C   LIG d   1      -8.028  94.468 118.524  0.00  0.00     0.382 C 
ATOM     23  O   LIG d   1      -8.024  95.394 119.371  0.00  0.00    -0.241 OA
ATOM     24  O   LIG d   1      -9.041  94.282 117.824  0.00  0.00    -0.241 OA
ENDBRANCH   3  22
TORSDOF 7
ENDMDL
MODEL 2
REMARK VINA RESULT:      -4.8      2.506      3.969
REMARK  7 active torsions:
REMARK  status: ('A' for Active; 'I' for Inactive)
REMARK    1  A    between atoms: C_2  and  C_3 
REMARK    2  A    between atoms: C_3  and  O_6 
REMARK    3  A    between atoms: C_3  and  C_4 
REMARK    4  A    between atoms: C_7  and  O_6 
REMARK    5  A    between atoms: C_9  and  C_10 
REMARK    6  A    between atoms: N_15  and  C_14 
REMARK    7  A    between atoms: N_20  and  C_19 
REMARK       I    between atoms: C_22  and  N_20 
ROOT
ATOM      1  C   LIG d   1      -4.167  91.802 118.065  0.00  0.00     0.161 C 
ATOM      2  C   LIG d   1      -4.903  91.107 117.091  0.00  0.00     0.016 C 
ATOM      3  C   LIG d   1      -6.176  91.520 116.635  0.00  0.00     0.038 C 
ATOM      4  C   LIG d   1      -6.737  92.748 117.016  0.00  0.00     0.028 C 
ATOM      5  C   LIG d   1      -6.259  93.236 118.380  0.00  0.00    -0.047 C 
ATOM      6  C   LIG d   1      -4.713  93.203 118.410  0.00  0.00     0.091 C 
ENDROOT
BRANCH   1   7
ATOM      7  O   LIG d   1      -2.785  91.888 117.664  0.00  0.00    -0.368 OA
BRANCH   7   8
ATOM      8  C   LIG d   1      -1.845  91.114 118.449  0.00  0.00     0.119 C 
BRANCH   8   9
ATOM      9  C   LIG d   1      -0.616  92.007 118.710  0.00  0.00     0.028 C 
ATOM     10  C   LIG d   1       0.342  92.052 117.508  0.00  0.00     0.006 C 
ENDBRANCH   8   9
BRANCH   8  11
ATOM     11  C   LIG d   1      -1.314  89.914 117.659  0.00  0.00     0.028 C 
ATOM     12  C   LIG d   1      -2.125  88.632 117.907  0.00  0.00     0.006 C 
ENDBRANCH   8  11
ENDBRANCH   7   8
ENDBRANCH   1   7
BRANCH   6  13
ATOM     13  N   LIG d   1      -4.164  93.585 119.737  0.00  0.00    -0.311 N 
ATOM     14  C   LIG d   1      -3.191  94.480 119.898  0.00  0.00     0.210 C 
ATOM     15  C   LIG d   1      -2.759  94.712 121.349  0.00  0.00     0.109 C 
ATOM     16  O   LIG d   1      -2.666  95.126 118.979  0.00  0.00    -0.276 OA
ATOM     17  H   LIG d   1      -4.555  93.132 120.540  0.00  0.00     0.149 HD
ENDBRANCH   6  13
BRANCH   5  18
ATOM     18  N   LIG d   1      -6.812  94.587 118.589  0.00  0.00     0.381 N 
ATOM     19  H   LIG d   1      -7.266  94.901 117.755  0.00  0.00    -0.090 HD
ATOM     20  H   LIG d   1      -6.059  95.219 118.795  0.00  0.00    -0.090 HD
ATOM     21  H   LIG d   1      -7.462  94.576 119.345  0.00  0.00    -0.090 HD
ENDBRANCH   5  18
BRANCH   3  22
ATOM     22  C   LIG d   1      -6.920  90.682 115.819  0.00  0.00     0.382 C 
ATOM     23  O   LIG d   1      -6.434  89.592 115.430  0.00  0.00    -0.241 OA
ATOM     24  O   LIG d   1      -8.054  91.020 115.431  0.00  0.00    -0.241 OA
ENDBRANCH   3  22
TORSDOF 7
ENDMDL
MODEL 3
REMARK VINA RESULT:      -4.7      2.581      4.647
REMARK  7 active torsions:
REMARK  status: ('A' for Active; 'I' for Inactive)
REMARK    1  A    between atoms: C_2  and  C_3 
REMARK    2  A    between atoms: C_3  and  O_6 
REMARK    3  A    between atoms: C_3  and  C_4 
REMARK    4  A    between atoms: C_7  and  O_6 
REMARK    5  A    between atoms: C_9  and  C_10 
REMARK    6  A    between atoms: N_15  and  C_14 
REMARK    7  A    between atoms: N_20  and  C_19 
REMARK       I    between atoms: C_22  and  N_20 
ROOT
ATOM      1  C   LIG d   1      -4.926  93.276 118.998  0.00  0.00     0.161 C 
ATOM      2  C   LIG d   1      -4.839  92.314 117.978  0.00  0.00     0.016 C 
ATOM      3  C   LIG d   1      -5.870  92.081 117.038  0.00  0.00     0.038 C 
ATOM      4  C   LIG d   1      -7.003  92.904 116.961  0.00  0.00     0.028 C 
ATOM      5  C   LIG d   1      -7.364  93.564 118.288  0.00  0.00    -0.047 C 
ATOM      6  C   LIG d   1      -6.108  94.259 118.861  0.00  0.00     0.091 C 
ENDROOT
BRANCH   1   7
ATOM      7  O   LIG d   1      -3.682  93.998 119.095  0.00  0.00    -0.368 OA
BRANCH   7   8
ATOM      8  C   LIG d   1      -2.541  93.392 118.440  0.00  0.00     0.119 C 
BRANCH   8   9
ATOM      9  C   LIG d   1      -1.603  92.862 119.542  0.00  0.00     0.028 C 
ATOM     10  C   LIG d   1      -1.643  91.329 119.659  0.00  0.00     0.006 C 
ENDBRANCH   8   9
BRANCH   8  11
ATOM     11  C   LIG d   1      -1.719  94.434 117.675  0.00  0.00     0.028 C 
ATOM     12  C   LIG d   1      -0.273  93.981 117.418  0.00  0.00     0.006 C 
ENDBRANCH   8  11
ENDBRANCH   7   8
ENDBRANCH   1   7
BRANCH   6  13
ATOM     13  N   LIG d   1      -6.352  94.858 120.199  0.00  0.00    -0.311 N 
ATOM     14  C   LIG d   1      -6.006  96.104 120.518  0.00  0.00     0.210 C 
ATOM     15  C   LIG d   1      -6.330  96.516 121.957  0.00  0.00     0.109 C 
ATOM     16  O   LIG d   1      -5.491  96.917 119.737  0.00  0.00    -0.276 OA
ATOM     17  H   LIG d   1      -6.794  94.278 120.884  0.00  0.00     0.149 HD
ENDBRANCH   6  13
BRANCH   5  18
ATOM     18  N   LIG d   1      -8.476  94.498 118.033  0.00  0.00     0.381 N 
ATOM     19  H   LIG d   1      -8.376  94.905 117.125  0.00  0.00    -0.090 HD
ATOM     20  H   LIG d   1      -8.443  95.236 118.715  0.00  0.00    -0.090 HD
ATOM     21  H   LIG d   1      -9.347  94.018 118.095  0.00  0.00    -0.090 HD
ENDBRANCH   5  18
BRANCH   3  22
ATOM     22  C   LIG d   1      -5.791  90.989 116.188  0.00  0.00     0.382 C 
ATOM     23  O   LIG d   1      -4.741  90.302 116.145  0.00  0.00    -0.241 OA
ATOM     24  O   LIG d   1      -6.739  90.708 115.430  0.00  0.00    -0.241 OA
ENDBRANCH   3  22
TORSDOF 7
ENDMDL
MODEL 4
REMARK VINA RESULT:      -4.1      2.930      6.054
REMARK  7 active torsions:
REMARK  status: ('A' for Active; 'I' for Inactive)
REMARK    1  A    between atoms: C_2  and  C_3 
REMARK    2  A    between atoms: C_3  and  O_6 
REMARK    3  A    between atoms: C_3  and  C_4 
REMARK    4  A    between atoms: C_7  and  O_6 
REMARK    5  A    between atoms: C_9  and  C_10 
REMARK    6  A    between atoms: N_15  and  C_14 
REMARK    7  A    between atoms: N_20  and  C_19 
REMARK       I    between atoms: C_22  and  N_20 
ROOT
ATOM      1  C   LIG d   1      -1.673  91.816 118.280  0.00  0.00     0.161 C 
ATOM      2  C   LIG d   1      -0.286  91.921 118.477  0.00  0.00     0.016 C 
ATOM      3  C   LIG d   1       0.411  93.151 118.465  0.00  0.00     0.038 C 
ATOM      4  C   LIG d   1      -0.259  94.382 118.406  0.00  0.00     0.028 C 
ATOM      5  C   LIG d   1      -1.609  94.304 117.701  0.00  0.00    -0.047 C 
ATOM      6  C   LIG d   1      -2.436  93.156 118.325  0.00  0.00     0.091 C 
ENDROOT
BRANCH   1   7
ATOM      7  O   LIG d   1      -2.232  90.889 119.231  0.00  0.00    -0.368 OA
BRANCH   7   8
ATOM      8  C   LIG d   1      -1.530  89.631 119.384  0.00  0.00     0.119 C 
BRANCH   8   9
ATOM      9  C   LIG d   1      -2.032  88.683 118.278  0.00  0.00     0.028 C 
ATOM     10  C   LIG d   1      -0.932  88.330 117.263  0.00  0.00     0.006 C 
ENDBRANCH   8   9
BRANCH   8  11
ATOM     11  C   LIG d   1      -1.897  88.945 120.704  0.00  0.00     0.028 C 
ATOM     12  C   LIG d   1      -2.466  87.532 120.502  0.00  0.00     0.006 C 
ENDBRANCH   8  11
ENDBRANCH   7   8
ENDBRANCH   1   7
BRANCH   6  13
ATOM     13  N   LIG d   1      -3.737  92.956 117.636  0.00  0.00    -0.311 N 
ATOM     14  C   LIG d   1      -4.901  92.868 118.279  0.00  0.00     0.210 C 
ATOM     15  C   LIG d   1      -6.120  92.642 117.381  0.00  0.00     0.109 C 
ATOM     16  O   LIG d   1      -5.042  92.988 119.505  0.00  0.00    -0.276 OA
ATOM     17  H   LIG d   1      -3.719  92.880 116.638  0.00  0.00     0.149 HD
ENDBRANCH   6  13
BRANCH   5  18
ATOM     18  N   LIG d   1      -2.258  95.622 117.832  0.00  0.00     0.381 N 
ATOM     19  H   LIG d   1      -2.915  95.751 117.089  0.00  0.00    -0.090 HD
ATOM     20  H   LIG d   1      -1.556  96.338 117.761  0.00  0.00    -0.090 HD
ATOM     21  H   LIG d   1      -2.722  95.687 118.712  0.00  0.00    -0.090 HD
ENDBRANCH   5  18
BRANCH   3  22
ATOM     22  C   LIG d   1       1.798  93.156 118.474  0.00  0.00     0.382 C 
ATOM     23  O   LIG d   1       2.417  93.506 119.507  0.00  0.00    -0.241 OA
ATOM     24  O   LIG d   1       2.436  92.856 117.447  0.00  0.00    -0.241 OA
ENDBRANCH   3  22
TORSDOF 7
ENDMDL
MODEL 5
REMARK VINA RESULT:      -4.1      2.650      5.007
REMARK  7 active torsions:
REMARK  status: ('A' for Active; 'I' for Inactive)
REMARK    1  A    between atoms: C_2  and  C_3 
REMARK    2  A    between atoms: C_3  and  O_6 
REMARK    3  A    between atoms: C_3  and  C_4 
REMARK    4  A    between atoms: C_7  and  O_6 
REMARK    5  A    between atoms: C_9  and  C_10 
REMARK    6  A    between atoms: N_15  and  C_14 
REMARK    7  A    between atoms: N_20  and  C_19 
REMARK       I    between atoms: C_22  and  N_20 
ROOT
ATOM      1  C   LIG d   1      -2.717  93.192 119.369  0.00  0.00     0.161 C 
ATOM      2  C   LIG d   1      -2.798  92.049 118.557  0.00  0.00     0.016 C 
ATOM      3  C   LIG d   1      -3.954  91.695 117.824  0.00  0.00     0.038 C 
ATOM      4  C   LIG d   1      -5.065  92.547 117.735  0.00  0.00     0.028 C 
ATOM      5  C   LIG d   1      -5.221  93.468 118.941  0.00  0.00    -0.047 C 
ATOM      6  C   LIG d   1      -3.879  94.192 119.196  0.00  0.00     0.091 C 
ENDROOT
BRANCH   1   7
ATOM      7  O   LIG d   1      -1.453  93.852 119.159  0.00  0.00    -0.368 OA
BRANCH   7   8
ATOM      8  C   LIG d   1      -1.056  94.045 117.779  0.00  0.00     0.119 C 
BRANCH   8   9
ATOM      9  C   LIG d   1       0.445  93.711 117.678  0.00  0.00     0.028 C 
ATOM     10  C   LIG d   1       0.701  92.204 117.508  0.00  0.00     0.006 C 
ENDBRANCH   8   9
BRANCH   8  11
ATOM     11  C   LIG d   1      -1.173  95.515 117.366  0.00  0.00     0.028 C 
ATOM     12  C   LIG d   1      -0.926  96.483 118.534  0.00  0.00     0.006 C 
ENDBRANCH   8  11
ENDBRANCH   7   8
ENDBRANCH   1   7
BRANCH   6  13
ATOM     13  N   LIG d   1      -3.920  95.049 120.410  0.00  0.00    -0.311 N 
ATOM     14  C   LIG d   1      -4.216  96.347 120.381  0.00  0.00     0.210 C 
ATOM     15  C   LIG d   1      -4.182  97.049 121.742  0.00  0.00     0.109 C 
ATOM     16  O   LIG d   1      -4.535  96.977 119.361  0.00  0.00    -0.276 OA
ATOM     17  H   LIG d   1      -3.704  94.612 121.284  0.00  0.00     0.149 HD
ENDBRANCH   6  13
BRANCH   5  18
ATOM     18  N   LIG d   1      -6.332  94.394 118.653  0.00  0.00     0.381 N 
ATOM     19  H   LIG d   1      -7.197  93.892 118.643  0.00  0.00    -0.090 HD
ATOM     20  H   LIG d   1      -6.191  94.799 117.744  0.00  0.00    -0.090 HD
ATOM     21  H   LIG d   1      -6.365  95.112 119.343  0.00  0.00    -0.090 HD
ENDBRANCH   5  18
BRANCH   3  22
ATOM     22  C   LIG d   1      -4.022  90.457 117.203  0.00  0.00     0.382 C 
ATOM     23  O   LIG d   1      -3.217  89.550 117.523  0.00  0.00    -0.241 OA
ATOM     24  O   LIG d   1      -4.850  90.250 116.296  0.00  0.00    -0.241 OA
ENDBRANCH   3  22
TORSDOF 7
ENDMDL
MODEL 6
REMARK VINA RESULT:      -4.0      3.751      7.413
REMARK  7 active torsions:
REMARK  status: ('A' for Active; 'I' for Inactive)
REMARK    1  A    between atoms: C_2  and  C_3 
REMARK    2  A    between atoms: C_3  and  O_6 
REMARK    3  A    between atoms: C_3  and  C_4 
REMARK    4  A    between atoms: C_7  and  O_6 
REMARK    5  A    between atoms: C_9  and  C_10 
REMARK    6  A    between atoms: N_15  and  C_14 
REMARK    7  A    between atoms: N_20  and  C_19 
REMARK       I    between atoms: C_22  and  N_20 
ROOT
ATOM      1  C   LIG d   1       0.262  91.440 117.021  0.00  0.00     0.161 C 
ATOM      2  C   LIG d   1       1.661  91.560 117.058  0.00  0.00     0.016 C 
ATOM      3  C   LIG d   1       2.346  92.415 117.951  0.00  0.00     0.038 C 
ATOM      4  C   LIG d   1       1.681  93.101 118.978  0.00  0.00     0.028 C 
ATOM      5  C   LIG d   1       0.221  93.403 118.657  0.00  0.00    -0.047 C 
ATOM      6  C   LIG d   1      -0.474  92.097 118.208  0.00  0.00     0.091 C 
ENDROOT
BRANCH   1   7
ATOM      7  O   LIG d   1      -0.107  90.052 116.909  0.00  0.00    -0.368 OA
BRANCH   7   8
ATOM      8  C   LIG d   1       0.136  89.231 118.078  0.00  0.00     0.119 C 
BRANCH   8   9
ATOM      9  C   LIG d   1       1.157  88.148 117.679  0.00  0.00     0.028 C 
ATOM     10  C   LIG d   1       0.915  87.608 116.260  0.00  0.00     0.006 C 
ENDBRANCH   8   9
BRANCH   8  11
ATOM     11  C   LIG d   1      -1.124  88.467 118.495  0.00  0.00     0.028 C 
ATOM     12  C   LIG d   1      -2.320  88.741 117.569  0.00  0.00     0.006 C 
ENDBRANCH   8  11
ENDBRANCH   7   8
ENDBRANCH   1   7
BRANCH   6  13
ATOM     13  N   LIG d   1      -1.884  92.319 117.795  0.00  0.00    -0.311 N 
ATOM     14  C   LIG d   1      -2.923  92.145 118.610  0.00  0.00     0.210 C 
ATOM     15  C   LIG d   1      -4.293  92.408 117.977  0.00  0.00     0.109 C 
ATOM     16  O   LIG d   1      -2.838  91.829 119.806  0.00  0.00    -0.276 OA
ATOM     17  H   LIG d   1      -2.043  92.607 116.849  0.00  0.00     0.149 HD
ENDBRANCH   6  13
BRANCH   5  18
ATOM     18  N   LIG d   1      -0.387  93.995 119.864  0.00  0.00     0.381 N 
ATOM     19  H   LIG d   1       0.329  94.356 120.462  0.00  0.00    -0.090 HD
ATOM     20  H   LIG d   1      -0.884  93.278 120.363  0.00  0.00    -0.090 HD
ATOM     21  H   LIG d   1      -1.014  94.726 119.606  0.00  0.00    -0.090 HD
ENDBRANCH   5  18
BRANCH   3  22
ATOM     22  C   LIG d   1       3.709  92.622 117.796  0.00  0.00     0.382 C 
ATOM     23  O   LIG d   1       4.443  92.742 118.806  0.00  0.00    -0.241 OA
ATOM     24  O   LIG d   1       4.206  92.733 116.660  0.00  0.00    -0.241 OA
ENDBRANCH   3  22
TORSDOF 7
ENDMDL
MODEL 7
REMARK VINA RESULT:      -3.9      2.684      5.416
REMARK  7 active torsions:
REMARK  status: ('A' for Active; 'I' for Inactive)
REMARK    1  A    between atoms: C_2  and  C_3 
REMARK    2  A    between atoms: C_3  and  O_6 
REMARK    3  A    between atoms: C_3  and  C_4 
REMARK    4  A    between atoms: C_7  and  O_6 
REMARK    5  A    between atoms: C_9  and  C_10 
REMARK    6  A    between atoms: N_15  and  C_14 
REMARK    7  A    between atoms: N_20  and  C_19 
REMARK       I    between atoms: C_22  and  N_20 
ROOT
ATOM      1  C   LIG d   1      -1.293  92.981 118.109  0.00  0.00     0.161 C 
ATOM      2  C   LIG d   1      -0.293  93.674 118.812  0.00  0.00     0.016 C 
ATOM      3  C   LIG d   1      -0.558  94.774 119.660  0.00  0.00     0.038 C 
ATOM      4  C   LIG d   1      -1.867  95.164 119.981  0.00  0.00     0.028 C 
ATOM      5  C   LIG d   1      -2.886  94.815 118.901  0.00  0.00    -0.047 C 
ATOM      6  C   LIG d   1      -2.736  93.321 118.534  0.00  0.00     0.091 C 
ENDROOT
BRANCH   1   7
ATOM      7  O   LIG d   1      -1.063  91.562 118.205  0.00  0.00    -0.368 OA
BRANCH   7   8
ATOM      8  C   LIG d   1      -1.519  90.923 119.423  0.00  0.00     0.119 C 
BRANCH   8   9
ATOM      9  C   LIG d   1      -0.288  90.302 120.109  0.00  0.00     0.028 C 
ATOM     10  C   LIG d   1       0.891  90.112 119.140  0.00  0.00     0.006 C 
ENDBRANCH   8   9
BRANCH   8  11
ATOM     11  C   LIG d   1      -2.451  89.746 119.119  0.00  0.00     0.028 C 
ATOM     12  C   LIG d   1      -2.536  89.425 117.619  0.00  0.00     0.006 C 
ENDBRANCH   8  11
ENDBRANCH   7   8
ENDBRANCH   1   7
BRANCH   6  13
ATOM     13  N   LIG d   1      -3.639  92.918 117.424  0.00  0.00    -0.311 N 
ATOM     14  C   LIG d   1      -4.872  92.451 117.615  0.00  0.00     0.210 C 
ATOM     15  C   LIG d   1      -5.625  92.074 116.335  0.00  0.00     0.109 C 
ATOM     16  O   LIG d   1      -5.424  92.343 118.720  0.00  0.00    -0.276 OA
ATOM     17  H   LIG d   1      -3.282  93.002 116.492  0.00  0.00     0.149 HD
ENDBRANCH   6  13
BRANCH   5  18
ATOM     18  N   LIG d   1      -4.223  95.151 119.425  0.00  0.00     0.381 N 
ATOM     19  H   LIG d   1      -4.514  94.456 120.083  0.00  0.00    -0.090 HD
ATOM     20  H   LIG d   1      -4.878  95.158 118.663  0.00  0.00    -0.090 HD
ATOM     21  H   LIG d   1      -4.203  96.046 119.863  0.00  0.00    -0.090 HD
ENDBRANCH   5  18
BRANCH   3  22
ATOM     22  C   LIG d   1       0.494  95.523 120.164  0.00  0.00     0.382 C 
ATOM     23  O   LIG d   1       0.299  96.702 120.545  0.00  0.00    -0.241 OA
ATOM     24  O   LIG d   1       1.646  95.049 120.201  0.00  0.00    -0.241 OA
ENDBRANCH   3  22
TORSDOF 7
ENDMDL
MODEL 8
REMARK VINA RESULT:      -3.9      2.492      4.710
REMARK  7 active torsions:
REMARK  status: ('A' for Active; 'I' for Inactive)
REMARK    1  A    between atoms: C_2  and  C_3 
REMARK    2  A    between atoms: C_3  and  O_6 
REMARK    3  A    between atoms: C_3  and  C_4 
REMARK    4  A    between atoms: C_7  and  O_6 
REMARK    5  A    between atoms: C_9  and  C_10 
REMARK    6  A    between atoms: N_15  and  C_14 
REMARK    7  A    between atoms: N_20  and  C_19 
REMARK       I    between atoms: C_22  and  N_20 
ROOT
ATOM      1  C   LIG d   1      -2.595  92.983 119.567  0.00  0.00     0.161 C 
ATOM      2  C   LIG d   1      -2.348  94.350 119.356  0.00  0.00     0.016 C 
ATOM      3  C   LIG d   1      -1.457  94.836 118.372  0.00  0.00     0.038 C 
ATOM      4  C   LIG d   1      -0.864  93.989 117.424  0.00  0.00     0.028 C 
ATOM      5  C   LIG d   1      -0.691  92.556 117.918  0.00  0.00    -0.047 C 
ATOM      6  C   LIG d   1      -2.042  92.049 118.471  0.00  0.00     0.091 C 
ENDROOT
BRANCH   1   7
ATOM      7  O   LIG d   1      -4.008  92.764 119.747  0.00  0.00    -0.368 OA
BRANCH   7   8
ATOM      8  C   LIG d   1      -4.863  93.916 119.541  0.00  0.00     0.119 C 
BRANCH   8   9
ATOM      9  C   LIG d   1      -5.521  94.251 120.893  0.00  0.00     0.028 C 
ATOM     10  C   LIG d   1      -5.572  93.039 121.838  0.00  0.00     0.006 C 
ENDBRANCH   8   9
BRANCH   8  11
ATOM     11  C   LIG d   1      -6.022  93.588 118.595  0.00  0.00     0.028 C 
ATOM     12  C   LIG d   1      -5.760  92.336 117.743  0.00  0.00     0.006 C 
ENDBRANCH   8  11
ENDBRANCH   7   8
ENDBRANCH   1   7
BRANCH   6  13
ATOM     13  N   LIG d   1      -1.941  90.684 119.051  0.00  0.00    -0.311 N 
ATOM     14  C   LIG d   1      -2.614  89.636 118.581  0.00  0.00     0.210 C 
ATOM     15  C   LIG d   1      -2.380  88.325 119.338  0.00  0.00     0.109 C 
ATOM     16  O   LIG d   1      -3.358  89.660 117.588  0.00  0.00    -0.276 OA
ATOM     17  H   LIG d   1      -1.335  90.568 119.840  0.00  0.00     0.149 HD
ENDBRANCH   6  13
BRANCH   5  18
ATOM     18  N   LIG d   1      -0.191  91.752 116.786  0.00  0.00     0.381 N 
ATOM     19  H   LIG d   1       0.178  90.885 117.123  0.00  0.00    -0.090 HD
ATOM     20  H   LIG d   1       0.552  92.256 116.333  0.00  0.00    -0.090 HD
ATOM     21  H   LIG d   1      -0.928  91.579 116.139  0.00  0.00    -0.090 HD
ENDBRANCH   5  18
BRANCH   3  22
ATOM     22  C   LIG d   1      -1.121  96.181 118.354  0.00  0.00     0.382 C 
ATOM     23  O   LIG d   1      -2.007  97.046 118.149  0.00  0.00    -0.241 OA
ATOM     24  O   LIG d   1       0.064  96.538 118.496  0.00  0.00    -0.241 OA
ENDBRANCH   3  22
TORSDOF 7
ENDMDL
MODEL 9
REMARK VINA RESULT:      -3.7      1.402      2.016
REMARK  7 active torsions:
REMARK  status: ('A' for Active; 'I' for Inactive)
REMARK    1  A    between atoms: C_2  and  C_3 
REMARK    2  A    between atoms: C_3  and  O_6 
REMARK    3  A    between atoms: C_3  and  C_4 
REMARK    4  A    between atoms: C_7  and  O_6 
REMARK    5  A    between atoms: C_9  and  C_10 
REMARK    6  A    between atoms: N_15  and  C_14 
REMARK    7  A    between atoms: N_20  and  C_19 
REMARK       I    between atoms: C_22  and  N_20 
ROOT
ATOM      1  C   LIG d   1      -3.248  93.004 118.830  0.00  0.00     0.161 C 
ATOM      2  C   LIG d   1      -4.561  93.491 118.938  0.00  0.00     0.016 C 
ATOM      3  C   LIG d   1      -5.657  92.937 118.236  0.00  0.00     0.038 C 
ATOM      4  C   LIG d   1      -5.538  91.756 117.489  0.00  0.00     0.028 C 
ATOM      5  C   LIG d   1      -4.132  91.521 116.946  0.00  0.00    -0.047 C 
ATOM      6  C   LIG d   1      -3.119  91.647 118.106  0.00  0.00     0.091 C 
ENDROOT
BRANCH   1   7
ATOM      7  O   LIG d   1      -2.643  92.935 120.136  0.00  0.00    -0.368 OA
BRANCH   7   8
ATOM      8  C   LIG d   1      -2.914  91.734 120.901  0.00  0.00     0.119 C 
BRANCH   8   9
ATOM      9  C   LIG d   1      -3.637  92.162 122.193  0.00  0.00     0.028 C 
ATOM     10  C   LIG d   1      -3.362  93.629 122.561  0.00  0.00     0.006 C 
ENDBRANCH   8   9
BRANCH   8  11
ATOM     11  C   LIG d   1      -1.617  91.064 121.364  0.00  0.00     0.028 C 
ATOM     12  C   LIG d   1      -0.364  91.875 120.998  0.00  0.00     0.006 C 
ENDBRANCH   8  11
ENDBRANCH   7   8
ENDBRANCH   1   7
BRANCH   6  13
ATOM     13  N   LIG d   1      -1.712  91.514 117.647  0.00  0.00    -0.311 N 
ATOM     14  C   LIG d   1      -1.043  90.362 117.654  0.00  0.00     0.210 C 
ATOM     15  C   LIG d   1       0.403  90.451 117.157  0.00  0.00     0.109 C 
ATOM     16  O   LIG d   1      -1.521  89.270 117.995  0.00  0.00    -0.276 OA
ATOM     17  H   LIG d   1      -1.257  92.346 117.324  0.00  0.00     0.149 HD
ENDBRANCH   6  13
BRANCH   5  18
ATOM     18  N   LIG d   1      -4.118  90.191 116.307  0.00  0.00     0.381 N 
ATOM     19  H   LIG d   1      -3.176  89.860 116.237  0.00  0.00    -0.090 HD
ATOM     20  H   LIG d   1      -4.494  90.273 115.379  0.00  0.00    -0.090 HD
ATOM     21  H   LIG d   1      -4.664  89.551 116.840  0.00  0.00    -0.090 HD
ENDBRANCH   5  18
BRANCH   3  22
ATOM     22  C   LIG d   1      -6.880  93.591 118.245  0.00  0.00     0.382 C 
ATOM     23  O   LIG d   1      -7.747  93.309 117.383  0.00  0.00    -0.241 OA
ATOM     24  O   LIG d   1      -7.110  94.489 119.076  0.00  0.00    -0.241 OA
ENDBRANCH   3  22
TORSDOF 7
ENDMDL
