MODEL 1
REMARK VINA RESULT:      -5.4      0.000      0.000
REMARK  7 active torsions:
REMARK  status: ('A' for Active; 'I' for Inactive)
REMARK    1  A    between atoms: C_2  and  C_3 
REMARK    2  A    between atoms: C_3  and  O_6 
REMARK    3  A    between atoms: C_3  and  C_4 
REMARK    4  A    between atoms: C_7  and  O_6 
REMARK    5  A    between atoms: C_9  and  C_10 
REMARK    6  A    between atoms: N_15  and  C_14 
REMARK    7  A    between atoms: N_20  and  C_19 
REMARK       I    between atoms: C_22  and  N_20 
ROOT
ATOM      1  C   LIG d   1      -4.996  92.388 118.886  0.00  0.00     0.161 C 
ATOM      2  C   LIG d   1      -5.342  91.475 117.876  0.00  0.00     0.016 C 
ATOM      3  C   LIG d   1      -6.201  91.795 116.799  0.00  0.00     0.038 C 
ATOM      4  C   LIG d   1      -6.654  93.104 116.576  0.00  0.00     0.028 C 
ATOM      5  C   LIG d   1      -6.740  93.941 117.848  0.00  0.00    -0.047 C 
ATOM      6  C   LIG d   1      -5.391  93.851 118.599  0.00  0.00     0.091 C 
ENDROOT
BRANCH   1   7
ATOM      7  O   LIG d   1      -3.585  92.295 119.165  0.00  0.00    -0.368 OA
BRANCH   7   8
ATOM      8  C   LIG d   1      -2.705  92.327 118.015  0.00  0.00     0.119 C 
BRANCH   8   9
ATOM      9  C   LIG d   1      -1.607  91.270 118.243  0.00  0.00     0.028 C 
ATOM     10  C   LIG d   1      -2.001  89.888 117.695  0.00  0.00     0.006 C 
ENDBRANCH   8   9
BRANCH   8  11
ATOM     11  C   LIG d   1      -1.965  93.665 117.917  0.00  0.00     0.028 C 
ATOM     12  C   LIG d   1      -0.505  93.506 117.463  0.00  0.00     0.006 C 
ENDBRANCH   8  11
ENDBRANCH   7   8
ENDBRANCH   1   7
BRANCH   6  13
ATOM     13  N   LIG d   1      -5.417  94.573 119.898  0.00  0.00    -0.311 N 
ATOM     14  C   LIG d   1      -4.961  95.815 120.056  0.00  0.00     0.210 C 
ATOM     15  C   LIG d   1      -5.064  96.365 121.482  0.00  0.00     0.109 C 
ATOM     16  O   LIG d   1      -4.512  96.524 119.143  0.00  0.00    -0.276 OA
ATOM     17  H   LIG d   1      -5.795  94.083 120.685  0.00  0.00     0.149 HD
ENDBRANCH   6  13
BRANCH   5  18
ATOM     18  N   LIG d   1      -7.091  95.318 117.453  0.00  0.00     0.381 N 
ATOM     19  H   LIG d   1      -7.832  95.298 116.781  0.00  0.00    -0.090 HD
ATOM     20  H   LIG d   1      -6.289  95.748 117.027  0.00  0.00    -0.090 HD
ATOM     21  H   LIG d   1      -7.373  95.840 118.253  0.00  0.00    -0.090 HD
ENDBRANCH   5  18
BRANCH   3  22
ATOM     22  C   LIG d   1      -6.647  90.791 115.954  0.00  0.00     0.382 C 
ATOM     23  O   LIG d   1      -5.841  89.933 115.519  0.00  0.00    -0.241 OA
ATOM     24  O   LIG d   1      -7.836  90.757 115.585  0.00  0.00    -0.241 OA
ENDBRANCH   3  22
TORSDOF 7
ENDMDL
MODEL 2
REMARK VINA RESULT:      -5.1      1.141      1.259
REMARK  7 active torsions:
REMARK  status: ('A' for Active; 'I' for Inactive)
REMARK    1  A    between atoms: C_2  and  C_3 
REMARK    2  A    between atoms: C_3  and  O_6 
REMARK    3  A    between atoms: C_3  and  C_4 
REMARK    4  A    between atoms: C_7  and  O_6 
REMARK    5  A    between atoms: C_9  and  C_10 
REMARK    6  A    between atoms: N_15  and  C_14 
REMARK    7  A    between atoms: N_20  and  C_19 
REMARK       I    between atoms: C_22  and  N_20 
ROOT
ATOM      1  C   LIG d   1      -4.756  92.825 117.994  0.00  0.00     0.161 C 
ATOM      2  C   LIG d   1      -5.131  91.776 117.138  0.00  0.00     0.016 C 
ATOM      3  C   LIG d   1      -6.420  91.657 116.570  0.00  0.00     0.038 C 
ATOM      4  C   LIG d   1      -7.383  92.669 116.701  0.00  0.00     0.028 C 
ATOM      5  C   LIG d   1      -7.220  93.501 117.969  0.00  0.00    -0.047 C 
ATOM      6  C   LIG d   1      -5.758  93.996 118.059  0.00  0.00     0.091 C 
ENDROOT
BRANCH   1   7
ATOM      7  O   LIG d   1      -3.446  93.306 117.633  0.00  0.00    -0.368 OA
BRANCH   7   8
ATOM      8  C   LIG d   1      -2.324  92.610 118.231  0.00  0.00     0.119 C 
BRANCH   8   9
ATOM      9  C   LIG d   1      -2.513  92.656 119.759  0.00  0.00     0.028 C 
ATOM     10  C   LIG d   1      -2.181  91.313 120.432  0.00  0.00     0.006 C 
ENDBRANCH   8   9
BRANCH   8  11
ATOM     11  C   LIG d   1      -1.007  93.343 117.963  0.00  0.00     0.028 C 
ATOM     12  C   LIG d   1       0.150  92.388 117.632  0.00  0.00     0.006 C 
ENDBRANCH   8  11
ENDBRANCH   7   8
ENDBRANCH   1   7
BRANCH   6  13
ATOM     13  N   LIG d   1      -5.491  94.748 119.313  0.00  0.00    -0.311 N 
ATOM     14  C   LIG d   1      -5.651  96.065 119.426  0.00  0.00     0.210 C 
ATOM     15  C   LIG d   1      -5.300  96.643 120.800  0.00  0.00     0.109 C 
ATOM     16  O   LIG d   1      -6.081  96.805 118.528  0.00  0.00    -0.276 OA
ATOM     17  H   LIG d   1      -5.168  94.221 120.101  0.00  0.00     0.149 HD
ENDBRANCH   6  13
BRANCH   5  18
ATOM     18  N   LIG d   1      -8.200  94.601 117.909  0.00  0.00     0.381 N 
ATOM     19  H   LIG d   1      -7.995  95.276 118.619  0.00  0.00    -0.090 HD
ATOM     20  H   LIG d   1      -9.117  94.229 118.083  0.00  0.00    -0.090 HD
ATOM     21  H   LIG d   1      -8.174  95.033 117.012  0.00  0.00    -0.090 HD
ENDBRANCH   5  18
BRANCH   3  22
ATOM     22  C   LIG d   1      -6.770  90.498 115.895  0.00  0.00     0.382 C 
ATOM     23  O   LIG d   1      -5.877  89.748 115.432  0.00  0.00    -0.241 OA
ATOM     24  O   LIG d   1      -7.969  90.215 115.706  0.00  0.00    -0.241 OA
ENDBRANCH   3  22
TORSDOF 7
ENDMDL
MODEL 3
REMARK VINA RESULT:      -5.1      1.127      1.869
REMARK  7 active torsions:
REMARK  status: ('A' for Active; 'I' for Inactive)
REMARK    1  A    between atoms: C_2  and  C_3 
REMARK    2  A    between atoms: C_3  and  O_6 
REMARK    3  A    between atoms: C_3  and  C_4 
REMARK    4  A    between atoms: C_7  and  O_6 
REMARK    5  A    between atoms: C_9  and  C_10 
REMARK    6  A    between atoms: N_15  and  C_14 
REMARK    7  A    between atoms: N_20  and  C_19 
REMARK       I    between atoms: C_22  and  N_20 
ROOT
ATOM      1  C   LIG d   1      -4.637  92.351 118.579  0.00  0.00     0.161 C 
ATOM      2  C   LIG d   1      -5.165  91.402 117.688  0.00  0.00     0.016 C 
ATOM      3  C   LIG d   1      -6.206  91.687 116.775  0.00  0.00     0.038 C 
ATOM      4  C   LIG d   1      -6.691  92.989 116.586  0.00  0.00     0.028 C 
ATOM      5  C   LIG d   1      -6.541  93.876 117.818  0.00  0.00    -0.047 C 
ATOM      6  C   LIG d   1      -5.077  93.805 118.311  0.00  0.00     0.091 C 
ENDROOT
BRANCH   1   7
ATOM      7  O   LIG d   1      -3.199  92.258 118.597  0.00  0.00    -0.368 OA
BRANCH   7   8
ATOM      8  C   LIG d   1      -2.620  91.562 119.729  0.00  0.00     0.119 C 
BRANCH   8   9
ATOM      9  C   LIG d   1      -1.721  92.566 120.478  0.00  0.00     0.028 C 
ATOM     10  C   LIG d   1      -0.685  93.228 119.555  0.00  0.00     0.006 C 
ENDBRANCH   8   9
BRANCH   8  11
ATOM     11  C   LIG d   1      -1.682  90.441 119.272  0.00  0.00     0.028 C 
ATOM     12  C   LIG d   1      -2.434  89.243 118.670  0.00  0.00     0.006 C 
ENDBRANCH   8  11
ENDBRANCH   7   8
ENDBRANCH   1   7
BRANCH   6  13
ATOM     13  N   LIG d   1      -4.863  94.579 119.562  0.00  0.00    -0.311 N 
ATOM     14  C   LIG d   1      -3.890  95.476 119.711  0.00  0.00     0.210 C 
ATOM     15  C   LIG d   1      -3.834  96.145 121.088  0.00  0.00     0.109 C 
ATOM     16  O   LIG d   1      -3.088  95.804 118.824  0.00  0.00    -0.276 OA
ATOM     17  H   LIG d   1      -5.488  94.397 120.323  0.00  0.00     0.149 HD
ENDBRANCH   6  13
BRANCH   5  18
ATOM     18  N   LIG d   1      -6.958  95.240 117.439  0.00  0.00     0.381 N 
ATOM     19  H   LIG d   1      -7.924  95.373 117.662  0.00  0.00    -0.090 HD
ATOM     20  H   LIG d   1      -6.845  95.350 116.446  0.00  0.00    -0.090 HD
ATOM     21  H   LIG d   1      -6.402  95.912 117.920  0.00  0.00    -0.090 HD
ENDBRANCH   5  18
BRANCH   3  22
ATOM     22  C   LIG d   1      -6.802  90.653 116.068  0.00  0.00     0.382 C 
ATOM     23  O   LIG d   1      -6.091  89.839 115.430  0.00  0.00    -0.241 OA
ATOM     24  O   LIG d   1      -8.042  90.551 116.022  0.00  0.00    -0.241 OA
ENDBRANCH   3  22
TORSDOF 7
ENDMDL
MODEL 4
REMARK VINA RESULT:      -4.9      2.440      3.591
REMARK  7 active torsions:
REMARK  status: ('A' for Active; 'I' for Inactive)
REMARK    1  A    between atoms: C_2  and  C_3 
REMARK    2  A    between atoms: C_3  and  O_6 
REMARK    3  A    between atoms: C_3  and  C_4 
REMARK    4  A    between atoms: C_7  and  O_6 
REMARK    5  A    between atoms: C_9  and  C_10 
REMARK    6  A    between atoms: N_15  and  C_14 
REMARK    7  A    between atoms: N_20  and  C_19 
REMARK       I    between atoms: C_22  and  N_20 
ROOT
ATOM      1  C   LIG d   1      -3.031  90.716 117.896  0.00  0.00     0.161 C 
ATOM      2  C   LIG d   1      -4.199  90.420 117.174  0.00  0.00     0.016 C 
ATOM      3  C   LIG d   1      -5.175  91.388 116.842  0.00  0.00     0.038 C 
ATOM      4  C   LIG d   1      -4.975  92.755 117.082  0.00  0.00     0.028 C 
ATOM      5  C   LIG d   1      -4.043  93.034 118.257  0.00  0.00    -0.047 C 
ATOM      6  C   LIG d   1      -2.742  92.222 118.069  0.00  0.00     0.091 C 
ENDROOT
BRANCH   1   7
ATOM      7  O   LIG d   1      -1.902  90.055 117.291  0.00  0.00    -0.368 OA
BRANCH   7   8
ATOM      8  C   LIG d   1      -1.596  88.730 117.790  0.00  0.00     0.119 C 
BRANCH   8   9
ATOM      9  C   LIG d   1      -2.087  88.660 119.249  0.00  0.00     0.028 C 
ATOM     10  C   LIG d   1      -2.069  87.227 119.806  0.00  0.00     0.006 C 
ENDBRANCH   8   9
BRANCH   8  11
ATOM     11  C   LIG d   1      -0.084  88.495 117.859  0.00  0.00     0.028 C 
ATOM     12  C   LIG d   1       0.706  89.425 116.925  0.00  0.00     0.006 C 
ENDBRANCH   8  11
ENDBRANCH   7   8
ENDBRANCH   1   7
BRANCH   6  13
ATOM     13  N   LIG d   1      -1.809  92.371 119.216  0.00  0.00    -0.311 N 
ATOM     14  C   LIG d   1      -0.610  92.943 119.117  0.00  0.00     0.210 C 
ATOM     15  C   LIG d   1       0.199  92.977 120.417  0.00  0.00     0.109 C 
ATOM     16  O   LIG d   1      -0.154  93.455 118.084  0.00  0.00    -0.276 OA
ATOM     17  H   LIG d   1      -2.112  92.012 120.100  0.00  0.00     0.149 HD
ENDBRANCH   6  13
BRANCH   5  18
ATOM     18  N   LIG d   1      -3.813  94.490 118.308  0.00  0.00     0.381 N 
ATOM     19  H   LIG d   1      -3.111  94.699 118.988  0.00  0.00    -0.090 HD
ATOM     20  H   LIG d   1      -4.666  94.944 118.585  0.00  0.00    -0.090 HD
ATOM     21  H   LIG d   1      -3.528  94.822 117.413  0.00  0.00    -0.090 HD
ENDBRANCH   5  18
BRANCH   3  22
ATOM     22  C   LIG d   1      -6.386  90.985 116.300  0.00  0.00     0.382 C 
ATOM     23  O   LIG d   1      -6.472  89.882 115.707  0.00  0.00    -0.241 OA
ATOM     24  O   LIG d   1      -7.383  91.729 116.358  0.00  0.00    -0.241 OA
ENDBRANCH   3  22
TORSDOF 7
ENDMDL
MODEL 5
REMARK VINA RESULT:      -4.8      2.295      4.155
REMARK  7 active torsions:
REMARK  status: ('A' for Active; 'I' for Inactive)
REMARK    1  A    between atoms: C_2  and  C_3 
REMARK    2  A    between atoms: C_3  and  O_6 
REMARK    3  A    between atoms: C_3  and  C_4 
REMARK    4  A    between atoms: C_7  and  O_6 
REMARK    5  A    between atoms: C_9  and  C_10 
REMARK    6  A    between atoms: N_15  and  C_14 
REMARK    7  A    between atoms: N_20  and  C_19 
REMARK       I    between atoms: C_22  and  N_20 
ROOT
ATOM      1  C   LIG d   1      -5.572  93.051 119.699  0.00  0.00     0.161 C 
ATOM      2  C   LIG d   1      -6.947  93.333 119.666  0.00  0.00     0.016 C 
ATOM      3  C   LIG d   1      -7.473  94.612 119.370  0.00  0.00     0.038 C 
ATOM      4  C   LIG d   1      -6.656  95.667 118.937  0.00  0.00     0.028 C 
ATOM      5  C   LIG d   1      -5.221  95.569 119.443  0.00  0.00    -0.047 C 
ATOM      6  C   LIG d   1      -4.670  94.162 119.121  0.00  0.00     0.091 C 
ENDROOT
BRANCH   1   7
ATOM      7  O   LIG d   1      -5.313  91.799 119.035  0.00  0.00    -0.368 OA
BRANCH   7   8
ATOM      8  C   LIG d   1      -5.032  91.876 117.616  0.00  0.00     0.119 C 
BRANCH   8   9
ATOM      9  C   LIG d   1      -6.305  91.437 116.866  0.00  0.00     0.028 C 
ATOM     10  C   LIG d   1      -6.881  92.556 115.982  0.00  0.00     0.006 C 
ENDBRANCH   8   9
BRANCH   8  11
ATOM     11  C   LIG d   1      -3.953  90.870 117.206  0.00  0.00     0.028 C 
ATOM     12  C   LIG d   1      -3.214  90.265 118.410  0.00  0.00     0.006 C 
ENDBRANCH   8  11
ENDBRANCH   7   8
ENDBRANCH   1   7
BRANCH   6  13
ATOM     13  N   LIG d   1      -3.299  93.953 119.657  0.00  0.00    -0.311 N 
ATOM     14  C   LIG d   1      -2.219  93.846 118.886  0.00  0.00     0.210 C 
ATOM     15  C   LIG d   1      -0.906  93.614 119.640  0.00  0.00     0.109 C 
ATOM     16  O   LIG d   1      -2.218  93.955 117.650  0.00  0.00    -0.276 OA
ATOM     17  H   LIG d   1      -3.204  93.885 120.651  0.00  0.00     0.149 HD
ENDBRANCH   6  13
BRANCH   5  18
ATOM     18  N   LIG d   1      -4.448  96.653 118.806  0.00  0.00     0.381 N 
ATOM     19  H   LIG d   1      -3.728  96.965 119.426  0.00  0.00    -0.090 HD
ATOM     20  H   LIG d   1      -5.063  97.426 118.622  0.00  0.00    -0.090 HD
ATOM     21  H   LIG d   1      -4.046  96.329 117.954  0.00  0.00    -0.090 HD
ENDBRANCH   5  18
BRANCH   3  22
ATOM     22  C   LIG d   1      -8.826  94.857 119.545  0.00  0.00     0.382 C 
ATOM     23  O   LIG d   1      -9.209  95.955 120.016  0.00  0.00    -0.241 OA
ATOM     24  O   LIG d   1      -9.667  93.977 119.281  0.00  0.00    -0.241 OA
ENDBRANCH   3  22
TORSDOF 7
ENDMDL
MODEL 6
REMARK VINA RESULT:      -4.6      2.122      3.724
REMARK  7 active torsions:
REMARK  status: ('A' for Active; 'I' for Inactive)
REMARK    1  A    between atoms: C_2  and  C_3 
REMARK    2  A    between atoms: C_3  and  O_6 
REMARK    3  A    between atoms: C_3  and  C_4 
REMARK    4  A    between atoms: C_7  and  O_6 
REMARK    5  A    between atoms: C_9  and  C_10 
REMARK    6  A    between atoms: N_15  and  C_14 
REMARK    7  A    between atoms: N_20  and  C_19 
REMARK       I    between atoms: C_22  and  N_20 
ROOT
ATOM      1  C   LIG d   1      -5.029  92.444 119.547  0.00  0.00     0.161 C 
ATOM      2  C   LIG d   1      -3.933  91.641 119.190  0.00  0.00     0.016 C 
ATOM      3  C   LIG d   1      -3.840  90.956 117.957  0.00  0.00     0.038 C 
ATOM      4  C   LIG d   1      -4.775  91.149 116.929  0.00  0.00     0.028 C 
ATOM      5  C   LIG d   1      -6.156  91.554 117.434  0.00  0.00    -0.047 C 
ATOM      6  C   LIG d   1      -6.006  92.755 118.394  0.00  0.00     0.091 C 
ENDROOT
BRANCH   1   7
ATOM      7  O   LIG d   1      -4.563  93.666 120.153  0.00  0.00    -0.368 OA
BRANCH   7   8
ATOM      8  C   LIG d   1      -4.084  94.686 119.243  0.00  0.00     0.119 C 
BRANCH   8   9
ATOM      9  C   LIG d   1      -2.558  94.794 119.431  0.00  0.00     0.028 C 
ATOM     10  C   LIG d   1      -1.778  94.263 118.216  0.00  0.00     0.006 C 
ENDBRANCH   8   9
BRANCH   8  11
ATOM     11  C   LIG d   1      -4.637  96.066 119.611  0.00  0.00     0.028 C 
ATOM     12  C   LIG d   1      -5.485  96.045 120.893  0.00  0.00     0.006 C 
ENDBRANCH   8  11
ENDBRANCH   7   8
ENDBRANCH   1   7
BRANCH   6  13
ATOM     13  N   LIG d   1      -7.301  93.161 119.000  0.00  0.00    -0.311 N 
ATOM     14  C   LIG d   1      -7.913  94.311 118.720  0.00  0.00     0.210 C 
ATOM     15  C   LIG d   1      -9.229  94.543 119.469  0.00  0.00     0.109 C 
ATOM     16  O   LIG d   1      -7.506  95.147 117.899  0.00  0.00    -0.276 OA
ATOM     17  H   LIG d   1      -7.718  92.528 119.654  0.00  0.00     0.149 HD
ENDBRANCH   6  13
BRANCH   5  18
ATOM     18  N   LIG d   1      -6.990  91.856 116.255  0.00  0.00     0.381 N 
ATOM     19  H   LIG d   1      -7.569  91.069 116.040  0.00  0.00    -0.090 HD
ATOM     20  H   LIG d   1      -6.390  92.031 115.468  0.00  0.00    -0.090 HD
ATOM     21  H   LIG d   1      -7.557  92.655 116.435  0.00  0.00    -0.090 HD
ENDBRANCH   5  18
BRANCH   3  22
ATOM     22  C   LIG d   1      -2.823  90.034 117.758  0.00  0.00     0.382 C 
ATOM     23  O   LIG d   1      -3.013  88.823 118.026  0.00  0.00    -0.241 OA
ATOM     24  O   LIG d   1      -1.704  90.405 117.355  0.00  0.00    -0.241 OA
ENDBRANCH   3  22
TORSDOF 7
ENDMDL
MODEL 7
REMARK VINA RESULT:      -4.5      1.794      2.533
REMARK  7 active torsions:
REMARK  status: ('A' for Active; 'I' for Inactive)
REMARK    1  A    between atoms: C_2  and  C_3 
REMARK    2  A    between atoms: C_3  and  O_6 
REMARK    3  A    between atoms: C_3  and  C_4 
REMARK    4  A    between atoms: C_7  and  O_6 
REMARK    5  A    between atoms: C_9  and  C_10 
REMARK    6  A    between atoms: N_15  and  C_14 
REMARK    7  A    between atoms: N_20  and  C_19 
REMARK       I    between atoms: C_22  and  N_20 
ROOT
ATOM      1  C   LIG d   1      -4.643  93.383 118.572  0.00  0.00     0.161 C 
ATOM      2  C   LIG d   1      -4.343  92.265 117.776  0.00  0.00     0.016 C 
ATOM      3  C   LIG d   1      -5.248  91.710 116.842  0.00  0.00     0.038 C 
ATOM      4  C   LIG d   1      -6.466  92.331 116.531  0.00  0.00     0.028 C 
ATOM      5  C   LIG d   1      -7.025  93.174 117.672  0.00  0.00    -0.047 C 
ATOM      6  C   LIG d   1      -5.925  94.140 118.167  0.00  0.00     0.091 C 
ENDROOT
BRANCH   1   7
ATOM      7  O   LIG d   1      -3.517  94.282 118.596  0.00  0.00    -0.368 OA
BRANCH   7   8
ATOM      8  C   LIG d   1      -2.927  94.530 119.897  0.00  0.00     0.119 C 
BRANCH   8   9
ATOM      9  C   LIG d   1      -1.446  94.115 119.820  0.00  0.00     0.028 C 
ATOM     10  C   LIG d   1      -1.238  92.623 120.131  0.00  0.00     0.006 C 
ENDBRANCH   8   9
BRANCH   8  11
ATOM     11  C   LIG d   1      -3.546  93.630 120.970  0.00  0.00     0.028 C 
ATOM     12  C   LIG d   1      -4.141  94.425 122.144  0.00  0.00     0.006 C 
ENDBRANCH   8  11
ENDBRANCH   7   8
ENDBRANCH   1   7
BRANCH   6  13
ATOM     13  N   LIG d   1      -6.362  94.944 119.338  0.00  0.00    -0.311 N 
ATOM     14  C   LIG d   1      -6.548  96.262 119.294  0.00  0.00     0.210 C 
ATOM     15  C   LIG d   1      -6.980  96.899 120.619  0.00  0.00     0.109 C 
ATOM     16  O   LIG d   1      -6.429  96.960 118.276  0.00  0.00    -0.276 OA
ATOM     17  H   LIG d   1      -6.512  94.453 120.198  0.00  0.00     0.149 HD
ENDBRANCH   6  13
BRANCH   5  18
ATOM     18  N   LIG d   1      -8.222  93.872 117.165  0.00  0.00     0.381 N 
ATOM     19  H   LIG d   1      -8.302  94.769 117.602  0.00  0.00    -0.090 HD
ATOM     20  H   LIG d   1      -9.037  93.333 117.401  0.00  0.00    -0.090 HD
ATOM     21  H   LIG d   1      -8.161  93.980 116.177  0.00  0.00    -0.090 HD
ENDBRANCH   5  18
BRANCH   3  22
ATOM     22  C   LIG d   1      -4.953  90.497 116.237  0.00  0.00     0.382 C 
ATOM     23  O   LIG d   1      -5.768  89.982 115.435  0.00  0.00    -0.241 OA
ATOM     24  O   LIG d   1      -3.902  89.890 116.518  0.00  0.00    -0.241 OA
ENDBRANCH   3  22
TORSDOF 7
ENDMDL
MODEL 8
REMARK VINA RESULT:      -4.3      2.688      3.094
REMARK  7 active torsions:
REMARK  status: ('A' for Active; 'I' for Inactive)
REMARK    1  A    between atoms: C_2  and  C_3 
REMARK    2  A    between atoms: C_3  and  O_6 
REMARK    3  A    between atoms: C_3  and  C_4 
REMARK    4  A    between atoms: C_7  and  O_6 
REMARK    5  A    between atoms: C_9  and  C_10 
REMARK    6  A    between atoms: N_15  and  C_14 
REMARK    7  A    between atoms: N_20  and  C_19 
REMARK       I    between atoms: C_22  and  N_20 
ROOT
ATOM      1  C   LIG d   1      -6.473  93.109 120.012  0.00  0.00     0.161 C 
ATOM      2  C   LIG d   1      -5.895  92.355 118.977  0.00  0.00     0.016 C 
ATOM      3  C   LIG d   1      -6.014  92.692 117.609  0.00  0.00     0.038 C 
ATOM      4  C   LIG d   1      -6.595  93.898 117.190  0.00  0.00     0.028 C 
ATOM      5  C   LIG d   1      -7.634  94.441 118.165  0.00  0.00    -0.047 C 
ATOM      6  C   LIG d   1      -7.016  94.488 119.582  0.00  0.00     0.091 C 
ENDROOT
BRANCH   1   7
ATOM      7  O   LIG d   1      -5.532  93.257 121.093  0.00  0.00    -0.368 OA
BRANCH   7   8
ATOM      8  C   LIG d   1      -4.130  93.200 120.731  0.00  0.00     0.119 C 
BRANCH   8   9
ATOM      9  C   LIG d   1      -3.397  92.417 121.837  0.00  0.00     0.028 C 
ATOM     10  C   LIG d   1      -2.753  91.123 121.312  0.00  0.00     0.006 C 
ENDBRANCH   8   9
BRANCH   8  11
ATOM     11  C   LIG d   1      -3.497  94.595 120.733  0.00  0.00     0.028 C 
ATOM     12  C   LIG d   1      -2.954  95.004 119.355  0.00  0.00     0.006 C 
ENDBRANCH   8  11
ENDBRANCH   7   8
ENDBRANCH   1   7
BRANCH   6  13
ATOM     13  N   LIG d   1      -7.993  94.928 120.612  0.00  0.00    -0.311 N 
ATOM     14  C   LIG d   1      -9.298  94.669 120.543  0.00  0.00     0.210 C 
ATOM     15  C   LIG d   1     -10.131  95.231 121.699  0.00  0.00     0.109 C 
ATOM     16  O   LIG d   1      -9.840  94.000 119.650  0.00  0.00    -0.276 OA
ATOM     17  H   LIG d   1      -7.634  95.450 121.387  0.00  0.00     0.149 HD
ENDBRANCH   6  13
BRANCH   5  18
ATOM     18  N   LIG d   1      -8.057  95.766 117.675  0.00  0.00     0.381 N 
ATOM     19  H   LIG d   1      -8.479  96.284 118.419  0.00  0.00    -0.090 HD
ATOM     20  H   LIG d   1      -8.741  95.641 116.950  0.00  0.00    -0.090 HD
ATOM     21  H   LIG d   1      -7.271  96.264 117.317  0.00  0.00    -0.090 HD
ENDBRANCH   5  18
BRANCH   3  22
ATOM     22  C   LIG d   1      -5.582  91.798 116.641  0.00  0.00     0.382 C 
ATOM     23  O   LIG d   1      -5.098  90.691 116.981  0.00  0.00    -0.241 OA
ATOM     24  O   LIG d   1      -5.631  92.101 115.434  0.00  0.00    -0.241 OA
ENDBRANCH   3  22
TORSDOF 7
ENDMDL
MODEL 9
REMARK VINA RESULT:      -4.3      1.931      2.408
REMARK  7 active torsions:
REMARK  status: ('A' for Active; 'I' for Inactive)
REMARK    1  A    between atoms: C_2  and  C_3 
REMARK    2  A    between atoms: C_3  and  O_6 
REMARK    3  A    between atoms: C_3  and  C_4 
REMARK    4  A    between atoms: C_7  and  O_6 
REMARK    5  A    between atoms: C_9  and  C_10 
REMARK    6  A    between atoms: N_15  and  C_14 
REMARK    7  A    between atoms: N_20  and  C_19 
REMARK       I    between atoms: C_22  and  N_20 
ROOT
ATOM      1  C   LIG d   1      -2.641  93.141 118.305  0.00  0.00     0.161 C 
ATOM      2  C   LIG d   1      -3.307  92.130 117.592  0.00  0.00     0.016 C 
ATOM      3  C   LIG d   1      -4.689  92.167 117.298  0.00  0.00     0.038 C 
ATOM      4  C   LIG d   1      -5.475  93.297 117.569  0.00  0.00     0.028 C 
ATOM      5  C   LIG d   1      -4.957  94.130 118.737  0.00  0.00    -0.047 C 
ATOM      6  C   LIG d   1      -3.459  94.433 118.511  0.00  0.00     0.091 C 
ENDROOT
BRANCH   1   7
ATOM      7  O   LIG d   1      -1.383  93.440 117.669  0.00  0.00    -0.368 OA
BRANCH   7   8
ATOM      8  C   LIG d   1      -0.194  93.186 118.456  0.00  0.00     0.119 C 
BRANCH   8   9
ATOM      9  C   LIG d   1       0.661  92.160 117.686  0.00  0.00     0.028 C 
ATOM     10  C   LIG d   1       0.147  90.721 117.859  0.00  0.00     0.006 C 
ENDBRANCH   8   9
BRANCH   8  11
ATOM     11  C   LIG d   1      -0.540  92.509 119.786  0.00  0.00     0.028 C 
ATOM     12  C   LIG d   1      -0.001  93.277 121.003  0.00  0.00     0.006 C 
ENDBRANCH   8  11
ENDBRANCH   7   8
ENDBRANCH   1   7
BRANCH   6  13
ATOM     13  N   LIG d   1      -2.852  95.173 119.649  0.00  0.00    -0.311 N 
ATOM     14  C   LIG d   1      -2.761  96.500 119.695  0.00  0.00     0.210 C 
ATOM     15  C   LIG d   1      -2.082  97.059 120.950  0.00  0.00     0.109 C 
ATOM     16  O   LIG d   1      -3.205  97.271 118.831  0.00  0.00    -0.276 OA
ATOM     17  H   LIG d   1      -2.494  94.627 120.408  0.00  0.00     0.149 HD
ENDBRANCH   6  13
BRANCH   5  18
ATOM     18  N   LIG d   1      -5.788  95.346 118.820  0.00  0.00     0.381 N 
ATOM     19  H   LIG d   1      -5.865  95.639 119.774  0.00  0.00    -0.090 HD
ATOM     20  H   LIG d   1      -6.709  95.135 118.479  0.00  0.00    -0.090 HD
ATOM     21  H   LIG d   1      -5.382  96.074 118.274  0.00  0.00    -0.090 HD
ENDBRANCH   5  18
BRANCH   3  22
ATOM     22  C   LIG d   1      -5.308  91.048 116.763  0.00  0.00     0.382 C 
ATOM     23  O   LIG d   1      -6.548  90.898 116.885  0.00  0.00    -0.241 OA
ATOM     24  O   LIG d   1      -4.636  90.163 116.199  0.00  0.00    -0.241 OA
ENDBRANCH   3  22
TORSDOF 7
ENDMDL
