MODEL 1
REMARK VINA RESULT:      -4.7      0.000      0.000
REMARK  7 active torsions:
REMARK  status: ('A' for Active; 'I' for Inactive)
REMARK    1  A    between atoms: C_2  and  C_3 
REMARK    2  A    between atoms: C_3  and  O_6 
REMARK    3  A    between atoms: C_3  and  C_4 
REMARK    4  A    between atoms: C_7  and  O_6 
REMARK    5  A    between atoms: C_9  and  C_10 
REMARK    6  A    between atoms: N_15  and  C_14 
REMARK    7  A    between atoms: N_20  and  C_19 
REMARK       I    between atoms: C_22  and  N_20 
ROOT
ATOM      1  C   LIG d   1      -3.738  92.957 118.578  0.00  0.00     0.161 C 
ATOM      2  C   LIG d   1      -4.994  93.499 118.895  0.00  0.00     0.016 C 
ATOM      3  C   LIG d   1      -6.185  93.152 118.217  0.00  0.00     0.038 C 
ATOM      4  C   LIG d   1      -6.225  92.118 117.269  0.00  0.00     0.028 C 
ATOM      5  C   LIG d   1      -4.893  91.894 116.561  0.00  0.00    -0.047 C 
ATOM      6  C   LIG d   1      -3.779  91.745 117.623  0.00  0.00     0.091 C 
ENDROOT
BRANCH   1   7
ATOM      7  O   LIG d   1      -3.034  92.616 119.789  0.00  0.00    -0.368 OA
BRANCH   7   8
ATOM      8  C   LIG d   1      -1.984  93.529 120.194  0.00  0.00     0.119 C 
BRANCH   8   9
ATOM      9  C   LIG d   1      -2.580  94.480 121.250  0.00  0.00     0.028 C 
ATOM     10  C   LIG d   1      -2.598  95.944 120.779  0.00  0.00     0.006 C 
ENDBRANCH   8   9
BRANCH   8  11
ATOM     11  C   LIG d   1      -1.552  94.432 119.034  0.00  0.00     0.028 C 
ATOM     12  C   LIG d   1      -0.143  94.103 118.517  0.00  0.00     0.006 C 
ENDBRANCH   8  11
ENDBRANCH   7   8
ENDBRANCH   1   7
BRANCH   6  13
ATOM     13  N   LIG d   1      -2.430  91.607 117.013  0.00  0.00    -0.311 N 
ATOM     14  C   LIG d   1      -1.513  90.746 117.451  0.00  0.00     0.210 C 
ATOM     15  C   LIG d   1      -0.182  90.780 116.693  0.00  0.00     0.109 C 
ATOM     16  O   LIG d   1      -1.687  89.935 118.373  0.00  0.00    -0.276 OA
ATOM     17  H   LIG d   1      -2.216  92.205 116.240  0.00  0.00     0.149 HD
ENDBRANCH   6  13
BRANCH   5  18
ATOM     18  N   LIG d   1      -5.038  90.702 115.705  0.00  0.00     0.381 N 
ATOM     19  H   LIG d   1      -5.794  90.836 115.063  0.00  0.00    -0.090 HD
ATOM     20  H   LIG d   1      -5.252  89.910 116.284  0.00  0.00    -0.090 HD
ATOM     21  H   LIG d   1      -4.193  90.538 115.203  0.00  0.00    -0.090 HD
ENDBRANCH   5  18
BRANCH   3  22
ATOM     22  C   LIG d   1      -7.347  93.870 118.456  0.00  0.00     0.382 C 
ATOM     23  O   LIG d   1      -7.924  94.462 117.513  0.00  0.00    -0.241 OA
ATOM     24  O   LIG d   1      -7.801  93.970 119.612  0.00  0.00    -0.241 OA
ENDBRANCH   3  22
TORSDOF 7
ENDMDL
MODEL 2
REMARK VINA RESULT:      -4.5      2.914      4.802
REMARK  7 active torsions:
REMARK  status: ('A' for Active; 'I' for Inactive)
REMARK    1  A    between atoms: C_2  and  C_3 
REMARK    2  A    between atoms: C_3  and  O_6 
REMARK    3  A    between atoms: C_3  and  C_4 
REMARK    4  A    between atoms: C_7  and  O_6 
REMARK    5  A    between atoms: C_9  and  C_10 
REMARK    6  A    between atoms: N_15  and  C_14 
REMARK    7  A    between atoms: N_20  and  C_19 
REMARK       I    between atoms: C_22  and  N_20 
ROOT
ATOM      1  C   LIG d   1      -5.003  93.201 119.262  0.00  0.00     0.161 C 
ATOM      2  C   LIG d   1      -5.091  92.248 118.233  0.00  0.00     0.016 C 
ATOM      3  C   LIG d   1      -6.070  92.291 117.214  0.00  0.00     0.038 C 
ATOM      4  C   LIG d   1      -6.940  93.382 117.067  0.00  0.00     0.028 C 
ATOM      5  C   LIG d   1      -7.219  94.115 118.375  0.00  0.00    -0.047 C 
ATOM      6  C   LIG d   1      -5.873  94.459 119.054  0.00  0.00     0.091 C 
ENDROOT
BRANCH   1   7
ATOM      7  O   LIG d   1      -3.626  93.573 119.466  0.00  0.00    -0.368 OA
BRANCH   7   8
ATOM      8  C   LIG d   1      -2.733  93.352 118.347  0.00  0.00     0.119 C 
BRANCH   8   9
ATOM      9  C   LIG d   1      -1.582  92.456 118.843  0.00  0.00     0.028 C 
ATOM     10  C   LIG d   1      -1.643  91.039 118.248  0.00  0.00     0.006 C 
ENDBRANCH   8   9
BRANCH   8  11
ATOM     11  C   LIG d   1      -2.067  94.657 117.900  0.00  0.00     0.028 C 
ATOM     12  C   LIG d   1      -0.929  94.430 116.893  0.00  0.00     0.006 C 
ENDBRANCH   8  11
ENDBRANCH   7   8
ENDBRANCH   1   7
BRANCH   6  13
ATOM     13  N   LIG d   1      -6.056  95.103 120.381  0.00  0.00    -0.311 N 
ATOM     14  C   LIG d   1      -6.107  96.422 120.555  0.00  0.00     0.210 C 
ATOM     15  C   LIG d   1      -6.281  96.877 122.007  0.00  0.00     0.109 C 
ATOM     16  O   LIG d   1      -6.056  97.258 119.640  0.00  0.00    -0.276 OA
ATOM     17  H   LIG d   1      -6.137  94.498 121.174  0.00  0.00     0.149 HD
ENDBRANCH   6  13
BRANCH   5  18
ATOM     18  N   LIG d   1      -8.025  95.308 118.054  0.00  0.00     0.381 N 
ATOM     19  H   LIG d   1      -7.425  96.098 117.925  0.00  0.00    -0.090 HD
ATOM     20  H   LIG d   1      -8.640  95.501 118.825  0.00  0.00    -0.090 HD
ATOM     21  H   LIG d   1      -8.558  95.147 117.228  0.00  0.00    -0.090 HD
ENDBRANCH   5  18
BRANCH   3  22
ATOM     22  C   LIG d   1      -6.212  91.215 116.351  0.00  0.00     0.382 C 
ATOM     23  O   LIG d   1      -7.342  90.699 116.173  0.00  0.00    -0.241 OA
ATOM     24  O   LIG d   1      -5.218  90.725 115.783  0.00  0.00    -0.241 OA
ENDBRANCH   3  22
TORSDOF 7
ENDMDL
MODEL 3
REMARK VINA RESULT:      -4.5      2.654      6.100
REMARK  7 active torsions:
REMARK  status: ('A' for Active; 'I' for Inactive)
REMARK    1  A    between atoms: C_2  and  C_3 
REMARK    2  A    between atoms: C_3  and  O_6 
REMARK    3  A    between atoms: C_3  and  C_4 
REMARK    4  A    between atoms: C_7  and  O_6 
REMARK    5  A    between atoms: C_9  and  C_10 
REMARK    6  A    between atoms: N_15  and  C_14 
REMARK    7  A    between atoms: N_20  and  C_19 
REMARK       I    between atoms: C_22  and  N_20 
ROOT
ATOM      1  C   LIG d   1      -2.953  90.076 118.078  0.00  0.00     0.161 C 
ATOM      2  C   LIG d   1      -1.604  89.727 117.895  0.00  0.00     0.016 C 
ATOM      3  C   LIG d   1      -0.591  90.666 117.597  0.00  0.00     0.038 C 
ATOM      4  C   LIG d   1      -0.833  92.048 117.611  0.00  0.00     0.028 C 
ATOM      5  C   LIG d   1      -2.279  92.412 117.293  0.00  0.00    -0.047 C 
ATOM      6  C   LIG d   1      -3.217  91.591 118.207  0.00  0.00     0.091 C 
ENDROOT
BRANCH   1   7
ATOM      7  O   LIG d   1      -3.489  89.375 119.217  0.00  0.00    -0.368 OA
BRANCH   7   8
ATOM      8  C   LIG d   1      -2.535  89.000 120.241  0.00  0.00     0.119 C 
BRANCH   8   9
ATOM      9  C   LIG d   1      -2.883  87.569 120.697  0.00  0.00     0.028 C 
ATOM     10  C   LIG d   1      -1.814  86.545 120.280  0.00  0.00     0.006 C 
ENDBRANCH   8   9
BRANCH   8  11
ATOM     11  C   LIG d   1      -2.687  89.872 121.491  0.00  0.00     0.028 C 
ATOM     12  C   LIG d   1      -1.632  90.986 121.573  0.00  0.00     0.006 C 
ENDBRANCH   8  11
ENDBRANCH   7   8
ENDBRANCH   1   7
BRANCH   6  13
ATOM     13  N   LIG d   1      -4.653  91.824 117.903  0.00  0.00    -0.311 N 
ATOM     14  C   LIG d   1      -5.390  92.749 118.515  0.00  0.00     0.210 C 
ATOM     15  C   LIG d   1      -6.854  92.811 118.066  0.00  0.00     0.109 C 
ATOM     16  O   LIG d   1      -4.964  93.546 119.364  0.00  0.00    -0.276 OA
ATOM     17  H   LIG d   1      -5.072  91.243 117.204  0.00  0.00     0.149 HD
ENDBRANCH   6  13
BRANCH   5  18
ATOM     18  N   LIG d   1      -2.423  93.869 117.477  0.00  0.00     0.381 N 
ATOM     19  H   LIG d   1      -1.815  94.352 116.847  0.00  0.00    -0.090 HD
ATOM     20  H   LIG d   1      -2.156  94.105 118.417  0.00  0.00    -0.090 HD
ATOM     21  H   LIG d   1      -3.367  94.142 117.314  0.00  0.00    -0.090 HD
ENDBRANCH   5  18
BRANCH   3  22
ATOM     22  C   LIG d   1       0.674  90.223 117.241  0.00  0.00     0.382 C 
ATOM     23  O   LIG d   1       1.640  90.388 118.025  0.00  0.00    -0.241 OA
ATOM     24  O   LIG d   1       0.870  89.701 116.128  0.00  0.00    -0.241 OA
ENDBRANCH   3  22
TORSDOF 7
ENDMDL
MODEL 4
REMARK VINA RESULT:      -4.4      1.337      1.735
REMARK  7 active torsions:
REMARK  status: ('A' for Active; 'I' for Inactive)
REMARK    1  A    between atoms: C_2  and  C_3 
REMARK    2  A    between atoms: C_3  and  O_6 
REMARK    3  A    between atoms: C_3  and  C_4 
REMARK    4  A    between atoms: C_7  and  O_6 
REMARK    5  A    between atoms: C_9  and  C_10 
REMARK    6  A    between atoms: N_15  and  C_14 
REMARK    7  A    between atoms: N_20  and  C_19 
REMARK       I    between atoms: C_22  and  N_20 
ROOT
ATOM      1  C   LIG d   1      -3.731  93.358 118.840  0.00  0.00     0.161 C 
ATOM      2  C   LIG d   1      -5.033  93.836 119.059  0.00  0.00     0.016 C 
ATOM      3  C   LIG d   1      -6.166  93.358 118.361  0.00  0.00     0.038 C 
ATOM      4  C   LIG d   1      -6.093  92.255 117.497  0.00  0.00     0.028 C 
ATOM      5  C   LIG d   1      -4.717  92.070 116.866  0.00  0.00    -0.047 C 
ATOM      6  C   LIG d   1      -3.647  92.078 117.982  0.00  0.00     0.091 C 
ENDROOT
BRANCH   1   7
ATOM      7  O   LIG d   1      -3.064  93.159 120.103  0.00  0.00    -0.368 OA
BRANCH   7   8
ATOM      8  C   LIG d   1      -3.519  92.034 120.893  0.00  0.00     0.119 C 
BRANCH   8   9
ATOM      9  C   LIG d   1      -3.874  92.566 122.295  0.00  0.00     0.028 C 
ATOM     10  C   LIG d   1      -3.509  94.050 122.469  0.00  0.00     0.006 C 
ENDBRANCH   8   9
BRANCH   8  11
ATOM     11  C   LIG d   1      -2.394  91.019 121.117  0.00  0.00     0.028 C 
ATOM     12  C   LIG d   1      -0.995  91.640 120.974  0.00  0.00     0.006 C 
ENDBRANCH   8  11
ENDBRANCH   7   8
ENDBRANCH   1   7
BRANCH   6  13
ATOM     13  N   LIG d   1      -2.265  91.987 117.444  0.00  0.00    -0.311 N 
ATOM     14  C   LIG d   1      -1.564  90.855 117.413  0.00  0.00     0.210 C 
ATOM     15  C   LIG d   1      -0.151  90.986 116.835  0.00  0.00     0.109 C 
ATOM     16  O   LIG d   1      -1.989  89.749 117.779  0.00  0.00    -0.276 OA
ATOM     17  H   LIG d   1      -1.854  92.831 117.097  0.00  0.00     0.149 HD
ENDBRANCH   6  13
BRANCH   5  18
ATOM     18  N   LIG d   1      -4.743  90.809 116.100  0.00  0.00     0.381 N 
ATOM     19  H   LIG d   1      -4.033  90.825 115.396  0.00  0.00    -0.090 HD
ATOM     20  H   LIG d   1      -5.636  90.723 115.647  0.00  0.00    -0.090 HD
ATOM     21  H   LIG d   1      -4.597  90.036 116.712  0.00  0.00    -0.090 HD
ENDBRANCH   5  18
BRANCH   3  22
ATOM     22  C   LIG d   1      -7.382  94.011 118.493  0.00  0.00     0.382 C 
ATOM     23  O   LIG d   1      -7.950  94.056 119.611  0.00  0.00    -0.241 OA
ATOM     24  O   LIG d   1      -7.939  94.517 117.501  0.00  0.00    -0.241 OA
ENDBRANCH   3  22
TORSDOF 7
ENDMDL
MODEL 5
REMARK VINA RESULT:      -4.4      2.366      4.352
REMARK  7 active torsions:
REMARK  status: ('A' for Active; 'I' for Inactive)
REMARK    1  A    between atoms: C_2  and  C_3 
REMARK    2  A    between atoms: C_3  and  O_6 
REMARK    3  A    between atoms: C_3  and  C_4 
REMARK    4  A    between atoms: C_7  and  O_6 
REMARK    5  A    between atoms: C_9  and  C_10 
REMARK    6  A    between atoms: N_15  and  C_14 
REMARK    7  A    between atoms: N_20  and  C_19 
REMARK       I    between atoms: C_22  and  N_20 
ROOT
ATOM      1  C   LIG d   1      -3.054  91.616 117.947  0.00  0.00     0.161 C 
ATOM      2  C   LIG d   1      -3.970  91.459 116.893  0.00  0.00     0.016 C 
ATOM      3  C   LIG d   1      -5.253  92.053 116.882  0.00  0.00     0.038 C 
ATOM      4  C   LIG d   1      -5.652  92.976 117.861  0.00  0.00     0.028 C 
ATOM      5  C   LIG d   1      -4.955  92.773 119.203  0.00  0.00    -0.047 C 
ATOM      6  C   LIG d   1      -3.428  92.708 118.971  0.00  0.00     0.091 C 
ENDROOT
BRANCH   1   7
ATOM      7  O   LIG d   1      -1.736  91.858 117.416  0.00  0.00    -0.368 OA
BRANCH   7   8
ATOM      8  C   LIG d   1      -0.712  90.905 117.795  0.00  0.00     0.119 C 
BRANCH   8   9
ATOM      9  C   LIG d   1       0.160  90.644 116.552  0.00  0.00     0.028 C 
ATOM     10  C   LIG d   1       1.402  89.796 116.874  0.00  0.00     0.006 C 
ENDBRANCH   8   9
BRANCH   8  11
ATOM     11  C   LIG d   1      -1.321  89.547 118.157  0.00  0.00     0.028 C 
ATOM     12  C   LIG d   1      -1.007  89.118 119.599  0.00  0.00     0.006 C 
ENDBRANCH   8  11
ENDBRANCH   7   8
ENDBRANCH   1   7
BRANCH   6  13
ATOM     13  N   LIG d   1      -2.677  92.428 120.222  0.00  0.00    -0.311 N 
ATOM     14  C   LIG d   1      -1.625  93.141 120.620  0.00  0.00     0.210 C 
ATOM     15  C   LIG d   1      -0.983  92.671 121.930  0.00  0.00     0.109 C 
ATOM     16  O   LIG d   1      -1.181  94.138 120.030  0.00  0.00    -0.276 OA
ATOM     17  H   LIG d   1      -2.988  91.655 120.778  0.00  0.00     0.149 HD
ENDBRANCH   6  13
BRANCH   5  18
ATOM     18  N   LIG d   1      -5.359  93.883 120.086  0.00  0.00     0.381 N 
ATOM     19  H   LIG d   1      -4.985  94.745 119.741  0.00  0.00    -0.090 HD
ATOM     20  H   LIG d   1      -4.984  93.722 121.004  0.00  0.00    -0.090 HD
ATOM     21  H   LIG d   1      -6.353  93.939 120.131  0.00  0.00    -0.090 HD
ENDBRANCH   5  18
BRANCH   3  22
ATOM     22  C   LIG d   1      -6.168  91.695 115.903  0.00  0.00     0.382 C 
ATOM     23  O   LIG d   1      -6.173  90.527 115.447  0.00  0.00    -0.241 OA
ATOM     24  O   LIG d   1      -6.959  92.538 115.439  0.00  0.00    -0.241 OA
ENDBRANCH   3  22
TORSDOF 7
ENDMDL
MODEL 6
REMARK VINA RESULT:      -4.3      0.907      2.004
REMARK  7 active torsions:
REMARK  status: ('A' for Active; 'I' for Inactive)
REMARK    1  A    between atoms: C_2  and  C_3 
REMARK    2  A    between atoms: C_3  and  O_6 
REMARK    3  A    between atoms: C_3  and  C_4 
REMARK    4  A    between atoms: C_7  and  O_6 
REMARK    5  A    between atoms: C_9  and  C_10 
REMARK    6  A    between atoms: N_15  and  C_14 
REMARK    7  A    between atoms: N_20  and  C_19 
REMARK       I    between atoms: C_22  and  N_20 
ROOT
ATOM      1  C   LIG d   1      -3.686  93.002 118.848  0.00  0.00     0.161 C 
ATOM      2  C   LIG d   1      -4.962  93.510 119.144  0.00  0.00     0.016 C 
ATOM      3  C   LIG d   1      -6.122  93.175 118.409  0.00  0.00     0.038 C 
ATOM      4  C   LIG d   1      -6.110  92.185 117.415  0.00  0.00     0.028 C 
ATOM      5  C   LIG d   1      -4.751  92.015 116.746  0.00  0.00    -0.047 C 
ATOM      6  C   LIG d   1      -3.672  91.836 117.838  0.00  0.00     0.091 C 
ENDROOT
BRANCH   1   7
ATOM      7  O   LIG d   1      -3.018  92.618 120.066  0.00  0.00    -0.368 OA
BRANCH   7   8
ATOM      8  C   LIG d   1      -2.063  93.570 120.597  0.00  0.00     0.119 C 
BRANCH   8   9
ATOM      9  C   LIG d   1      -0.658  93.103 120.169  0.00  0.00     0.028 C 
ATOM     10  C   LIG d   1      -0.320  91.699 120.697  0.00  0.00     0.006 C 
ENDBRANCH   8   9
BRANCH   8  11
ATOM     11  C   LIG d   1      -2.049  93.549 122.128  0.00  0.00     0.028 C 
ATOM     12  C   LIG d   1      -3.348  92.990 122.729  0.00  0.00     0.006 C 
ENDBRANCH   8  11
ENDBRANCH   7   8
ENDBRANCH   1   7
BRANCH   6  13
ATOM     13  N   LIG d   1      -2.301  91.748 117.272  0.00  0.00    -0.311 N 
ATOM     14  C   LIG d   1      -1.519  90.678 117.407  0.00  0.00     0.210 C 
ATOM     15  C   LIG d   1      -0.135  90.803 116.763  0.00  0.00     0.109 C 
ATOM     16  O   LIG d   1      -1.852  89.625 117.972  0.00  0.00    -0.276 OA
ATOM     17  H   LIG d   1      -1.962  92.546 116.771  0.00  0.00     0.149 HD
ENDBRANCH   6  13
BRANCH   5  18
ATOM     18  N   LIG d   1      -4.845  90.861 115.831  0.00  0.00     0.381 N 
ATOM     19  H   LIG d   1      -5.805  90.676 115.618  0.00  0.00    -0.090 HD
ATOM     20  H   LIG d   1      -4.462  90.053 116.288  0.00  0.00    -0.090 HD
ATOM     21  H   LIG d   1      -4.341  91.049 114.993  0.00  0.00    -0.090 HD
ENDBRANCH   5  18
BRANCH   3  22
ATOM     22  C   LIG d   1      -7.304  93.862 118.639  0.00  0.00     0.382 C 
ATOM     23  O   LIG d   1      -7.715  94.027 119.813  0.00  0.00    -0.241 OA
ATOM     24  O   LIG d   1      -7.987  94.281 117.686  0.00  0.00    -0.241 OA
ENDBRANCH   3  22
TORSDOF 7
ENDMDL
MODEL 7
REMARK VINA RESULT:      -4.2      3.040      5.001
REMARK  7 active torsions:
REMARK  status: ('A' for Active; 'I' for Inactive)
REMARK    1  A    between atoms: C_2  and  C_3 
REMARK    2  A    between atoms: C_3  and  O_6 
REMARK    3  A    between atoms: C_3  and  C_4 
REMARK    4  A    between atoms: C_7  and  O_6 
REMARK    5  A    between atoms: C_9  and  C_10 
REMARK    6  A    between atoms: N_15  and  C_14 
REMARK    7  A    between atoms: N_20  and  C_19 
REMARK       I    between atoms: C_22  and  N_20 
ROOT
ATOM      1  C   LIG d   1      -5.086  93.307 119.083  0.00  0.00     0.161 C 
ATOM      2  C   LIG d   1      -5.152  92.309 118.097  0.00  0.00     0.016 C 
ATOM      3  C   LIG d   1      -6.145  92.273 117.091  0.00  0.00     0.038 C 
ATOM      4  C   LIG d   1      -7.056  93.325 116.911  0.00  0.00     0.028 C 
ATOM      5  C   LIG d   1      -7.344  94.103 118.190  0.00  0.00    -0.047 C 
ATOM      6  C   LIG d   1      -6.003  94.523 118.835  0.00  0.00     0.091 C 
ENDROOT
BRANCH   1   7
ATOM      7  O   LIG d   1      -3.720  93.736 119.252  0.00  0.00    -0.368 OA
BRANCH   7   8
ATOM      8  C   LIG d   1      -3.066  93.314 120.474  0.00  0.00     0.119 C 
BRANCH   8   9
ATOM      9  C   LIG d   1      -2.121  92.150 120.115  0.00  0.00     0.028 C 
ATOM     10  C   LIG d   1      -2.673  90.787 120.563  0.00  0.00     0.006 C 
ENDBRANCH   8   9
BRANCH   8  11
ATOM     11  C   LIG d   1      -4.071  92.727 121.470  0.00  0.00     0.028 C 
ATOM     12  C   LIG d   1      -4.249  93.602 122.721  0.00  0.00     0.006 C 
ENDBRANCH   8  11
ENDBRANCH   7   8
ENDBRANCH   1   7
BRANCH   6  13
ATOM     13  N   LIG d   1      -6.192  95.216 120.136  0.00  0.00    -0.311 N 
ATOM     14  C   LIG d   1      -6.246  96.541 120.260  0.00  0.00     0.210 C 
ATOM     15  C   LIG d   1      -6.427  97.050 121.693  0.00  0.00     0.109 C 
ATOM     16  O   LIG d   1      -6.194  97.342 119.314  0.00  0.00    -0.276 OA
ATOM     17  H   LIG d   1      -6.275  94.641 120.952  0.00  0.00     0.149 HD
ENDBRANCH   6  13
BRANCH   5  18
ATOM     18  N   LIG d   1      -8.197  95.251 117.831  0.00  0.00     0.381 N 
ATOM     19  H   LIG d   1      -8.335  95.834 118.633  0.00  0.00    -0.090 HD
ATOM     20  H   LIG d   1      -9.093  94.909 117.532  0.00  0.00    -0.090 HD
ATOM     21  H   LIG d   1      -7.772  95.776 117.099  0.00  0.00    -0.090 HD
ENDBRANCH   5  18
BRANCH   3  22
ATOM     22  C   LIG d   1      -6.259  91.157 116.277  0.00  0.00     0.382 C 
ATOM     23  O   LIG d   1      -5.249  90.706 115.685  0.00  0.00    -0.241 OA
ATOM     24  O   LIG d   1      -7.368  90.621 116.091  0.00  0.00    -0.241 OA
ENDBRANCH   3  22
TORSDOF 7
ENDMDL
MODEL 8
REMARK VINA RESULT:      -4.2      2.923      5.115
REMARK  7 active torsions:
REMARK  status: ('A' for Active; 'I' for Inactive)
REMARK    1  A    between atoms: C_2  and  C_3 
REMARK    2  A    between atoms: C_3  and  O_6 
REMARK    3  A    between atoms: C_3  and  C_4 
REMARK    4  A    between atoms: C_7  and  O_6 
REMARK    5  A    between atoms: C_9  and  C_10 
REMARK    6  A    between atoms: N_15  and  C_14 
REMARK    7  A    between atoms: N_20  and  C_19 
REMARK       I    between atoms: C_22  and  N_20 
ROOT
ATOM      1  C   LIG d   1      -4.997  93.772 119.752  0.00  0.00     0.161 C 
ATOM      2  C   LIG d   1      -4.580  92.744 118.890  0.00  0.00     0.016 C 
ATOM      3  C   LIG d   1      -5.276  92.385 117.713  0.00  0.00     0.038 C 
ATOM      4  C   LIG d   1      -6.361  93.135 117.236  0.00  0.00     0.028 C 
ATOM      5  C   LIG d   1      -7.122  93.868 118.335  0.00  0.00    -0.047 C 
ATOM      6  C   LIG d   1      -6.116  94.674 119.190  0.00  0.00     0.091 C 
ENDROOT
BRANCH   1   7
ATOM      7  O   LIG d   1      -3.863  94.569 120.148  0.00  0.00    -0.368 OA
BRANCH   7   8
ATOM      8  C   LIG d   1      -3.420  95.565 119.194  0.00  0.00     0.119 C 
BRANCH   8   9
ATOM      9  C   LIG d   1      -1.974  95.214 118.796  0.00  0.00     0.028 C 
ATOM     10  C   LIG d   1      -1.517  95.957 117.529  0.00  0.00     0.006 C 
ENDBRANCH   8   9
BRANCH   8  11
ATOM     11  C   LIG d   1      -3.338  96.953 119.836  0.00  0.00     0.028 C 
ATOM     12  C   LIG d   1      -3.390  96.904 121.371  0.00  0.00     0.006 C 
ENDBRANCH   8  11
ENDBRANCH   7   8
ENDBRANCH   1   7
BRANCH   6  13
ATOM     13  N   LIG d   1      -6.766  95.354 120.340  0.00  0.00    -0.311 N 
ATOM     14  C   LIG d   1      -7.063  96.652 120.351  0.00  0.00     0.210 C 
ATOM     15  C   LIG d   1      -7.713  97.156 121.644  0.00  0.00     0.109 C 
ATOM     16  O   LIG d   1      -6.879  97.428 119.401  0.00  0.00    -0.276 OA
ATOM     17  H   LIG d   1      -6.979  94.793 121.141  0.00  0.00     0.149 HD
ENDBRANCH   6  13
BRANCH   5  18
ATOM     18  N   LIG d   1      -8.138  94.717 117.685  0.00  0.00     0.381 N 
ATOM     19  H   LIG d   1      -8.599  95.280 118.372  0.00  0.00    -0.090 HD
ATOM     20  H   LIG d   1      -8.824  94.127 117.249  0.00  0.00    -0.090 HD
ATOM     21  H   LIG d   1      -7.708  95.300 117.001  0.00  0.00    -0.090 HD
ENDBRANCH   5  18
BRANCH   3  22
ATOM     22  C   LIG d   1      -4.912  91.240 117.021  0.00  0.00     0.382 C 
ATOM     23  O   LIG d   1      -5.559  90.889 116.006  0.00  0.00    -0.241 OA
ATOM     24  O   LIG d   1      -3.972  90.530 117.426  0.00  0.00    -0.241 OA
ENDBRANCH   3  22
TORSDOF 7
ENDMDL
MODEL 9
REMARK VINA RESULT:      -4.1      2.999      6.227
REMARK  7 active torsions:
REMARK  status: ('A' for Active; 'I' for Inactive)
REMARK    1  A    between atoms: C_2  and  C_3 
REMARK    2  A    between atoms: C_3  and  O_6 
REMARK    3  A    between atoms: C_3  and  C_4 
REMARK    4  A    between atoms: C_7  and  O_6 
REMARK    5  A    between atoms: C_9  and  C_10 
REMARK    6  A    between atoms: N_15  and  C_14 
REMARK    7  A    between atoms: N_20  and  C_19 
REMARK       I    between atoms: C_22  and  N_20 
ROOT
ATOM      1  C   LIG d   1      -1.630  90.216 117.930  0.00  0.00     0.161 C 
ATOM      2  C   LIG d   1      -0.421  90.492 118.588  0.00  0.00     0.016 C 
ATOM      3  C   LIG d   1       0.010  91.801 118.908  0.00  0.00     0.038 C 
ATOM      4  C   LIG d   1      -0.816  92.919 118.724  0.00  0.00     0.028 C 
ATOM      5  C   LIG d   1      -1.835  92.742 117.603  0.00  0.00    -0.047 C 
ATOM      6  C   LIG d   1      -2.596  91.415 117.821  0.00  0.00     0.091 C 
ENDROOT
BRANCH   1   7
ATOM      7  O   LIG d   1      -2.287  89.100 118.562  0.00  0.00    -0.368 OA
BRANCH   7   8
ATOM      8  C   LIG d   1      -1.812  88.747 119.885  0.00  0.00     0.119 C 
BRANCH   8   9
ATOM      9  C   LIG d   1      -1.560  87.227 119.897  0.00  0.00     0.028 C 
ATOM     10  C   LIG d   1      -0.140  86.865 119.430  0.00  0.00     0.006 C 
ENDBRANCH   8   9
BRANCH   8  11
ATOM     11  C   LIG d   1      -2.891  88.987 120.946  0.00  0.00     0.028 C 
ATOM     12  C   LIG d   1      -3.401  87.684 121.582  0.00  0.00     0.006 C 
ENDBRANCH   8  11
ENDBRANCH   7   8
ENDBRANCH   1   7
BRANCH   6  13
ATOM     13  N   LIG d   1      -3.553  91.123 116.723  0.00  0.00    -0.311 N 
ATOM     14  C   LIG d   1      -4.837  91.479 116.755  0.00  0.00     0.210 C 
ATOM     15  C   LIG d   1      -5.654  91.063 115.528  0.00  0.00     0.109 C 
ATOM     16  O   LIG d   1      -5.368  92.128 117.668  0.00  0.00    -0.276 OA
ATOM     17  H   LIG d   1      -3.199  90.627 115.929  0.00  0.00     0.149 HD
ENDBRANCH   6  13
BRANCH   5  18
ATOM     18  N   LIG d   1      -2.718  93.924 117.613  0.00  0.00     0.381 N 
ATOM     19  H   LIG d   1      -2.661  94.396 116.732  0.00  0.00    -0.090 HD
ATOM     20  H   LIG d   1      -2.408  94.555 118.330  0.00  0.00    -0.090 HD
ATOM     21  H   LIG d   1      -3.658  93.645 117.788  0.00  0.00    -0.090 HD
ENDBRANCH   5  18
BRANCH   3  22
ATOM     22  C   LIG d   1       1.298  92.004 119.381  0.00  0.00     0.382 C 
ATOM     23  O   LIG d   1       1.615  93.110 119.880  0.00  0.00    -0.241 OA
ATOM     24  O   LIG d   1       2.158  91.109 119.275  0.00  0.00    -0.241 OA
ENDBRANCH   3  22
TORSDOF 7
ENDMDL
