MODEL 1
REMARK VINA RESULT:      -5.2      0.000      0.000
REMARK  7 active torsions:
REMARK  status: ('A' for Active; 'I' for Inactive)
REMARK    1  A    between atoms: C_2  and  C_3 
REMARK    2  A    between atoms: C_3  and  O_6 
REMARK    3  A    between atoms: C_3  and  C_4 
REMARK    4  A    between atoms: C_7  and  O_6 
REMARK    5  A    between atoms: C_9  and  C_10 
REMARK    6  A    between atoms: N_15  and  C_14 
REMARK    7  A    between atoms: N_20  and  C_19 
REMARK       I    between atoms: C_22  and  N_20 
ROOT
ATOM      1  C   LIG d   1      -3.623  91.527 118.226  0.00  0.00     0.161 C 
ATOM      2  C   LIG d   1      -4.349  90.916 117.190  0.00  0.00     0.016 C 
ATOM      3  C   LIG d   1      -5.587  91.406 116.714  0.00  0.00     0.038 C 
ATOM      4  C   LIG d   1      -6.113  92.634 117.142  0.00  0.00     0.028 C 
ATOM      5  C   LIG d   1      -5.666  93.028 118.546  0.00  0.00    -0.047 C 
ATOM      6  C   LIG d   1      -4.126  92.929 118.628  0.00  0.00     0.091 C 
ENDROOT
BRANCH   1   7
ATOM      7  O   LIG d   1      -2.225  91.577 117.878  0.00  0.00    -0.368 OA
BRANCH   7   8
ATOM      8  C   LIG d   1      -1.352  90.691 118.621  0.00  0.00     0.119 C 
BRANCH   8   9
ATOM      9  C   LIG d   1      -0.103  91.500 119.022  0.00  0.00     0.028 C 
ATOM     10  C   LIG d   1       0.262  92.570 117.980  0.00  0.00     0.006 C 
ENDBRANCH   8   9
BRANCH   8  11
ATOM     11  C   LIG d   1      -0.831  89.553 117.738  0.00  0.00     0.028 C 
ATOM     12  C   LIG d   1      -1.477  88.198 118.069  0.00  0.00     0.006 C 
ENDBRANCH   8  11
ENDBRANCH   7   8
ENDBRANCH   1   7
BRANCH   6  13
ATOM     13  N   LIG d   1      -3.611  93.217 119.993  0.00  0.00    -0.311 N 
ATOM     14  C   LIG d   1      -2.654  94.108 120.243  0.00  0.00     0.210 C 
ATOM     15  C   LIG d   1      -2.258  94.235 121.717  0.00  0.00     0.109 C 
ATOM     16  O   LIG d   1      -2.118  94.829 119.388  0.00  0.00    -0.276 OA
ATOM     17  H   LIG d   1      -4.013  92.699 120.750  0.00  0.00     0.149 HD
ENDBRANCH   6  13
BRANCH   5  18
ATOM     18  N   LIG d   1      -6.173  94.387 118.810  0.00  0.00     0.381 N 
ATOM     19  H   LIG d   1      -7.067  94.335 119.257  0.00  0.00    -0.090 HD
ATOM     20  H   LIG d   1      -6.286  94.868 117.935  0.00  0.00    -0.090 HD
ATOM     21  H   LIG d   1      -5.533  94.884 119.390  0.00  0.00    -0.090 HD
ENDBRANCH   5  18
BRANCH   3  22
ATOM     22  C   LIG d   1      -6.333  90.644 115.828  0.00  0.00     0.382 C 
ATOM     23  O   LIG d   1      -7.463  91.041 115.456  0.00  0.00    -0.241 OA
ATOM     24  O   LIG d   1      -5.909  89.542 115.430  0.00  0.00    -0.241 OA
ENDBRANCH   3  22
TORSDOF 7
ENDMDL
MODEL 2
REMARK VINA RESULT:      -4.8      2.261      4.406
REMARK  7 active torsions:
REMARK  status: ('A' for Active; 'I' for Inactive)
REMARK    1  A    between atoms: C_2  and  C_3 
REMARK    2  A    between atoms: C_3  and  O_6 
REMARK    3  A    between atoms: C_3  and  C_4 
REMARK    4  A    between atoms: C_7  and  O_6 
REMARK    5  A    between atoms: C_9  and  C_10 
REMARK    6  A    between atoms: N_15  and  C_14 
REMARK    7  A    between atoms: N_20  and  C_19 
REMARK       I    between atoms: C_22  and  N_20 
ROOT
ATOM      1  C   LIG d   1      -3.834  93.028 120.203  0.00  0.00     0.161 C 
ATOM      2  C   LIG d   1      -3.021  92.050 119.606  0.00  0.00     0.016 C 
ATOM      3  C   LIG d   1      -3.320  91.440 118.366  0.00  0.00     0.038 C 
ATOM      4  C   LIG d   1      -4.382  91.880 117.561  0.00  0.00     0.028 C 
ATOM      5  C   LIG d   1      -5.520  92.515 118.353  0.00  0.00    -0.047 C 
ATOM      6  C   LIG d   1      -4.937  93.599 119.287  0.00  0.00     0.091 C 
ENDROOT
BRANCH   1   7
ATOM      7  O   LIG d   1      -3.014  94.093 120.725  0.00  0.00    -0.368 OA
BRANCH   7   8
ATOM      8  C   LIG d   1      -2.570  95.083 119.765  0.00  0.00     0.119 C 
BRANCH   8   9
ATOM      9  C   LIG d   1      -1.030  95.030 119.724  0.00  0.00     0.028 C 
ATOM     10  C   LIG d   1      -0.497  94.518 118.376  0.00  0.00     0.006 C 
ENDBRANCH   8   9
BRANCH   8  11
ATOM     11  C   LIG d   1      -2.914  96.502 120.229  0.00  0.00     0.028 C 
ATOM     12  C   LIG d   1      -3.422  97.396 119.086  0.00  0.00     0.006 C 
ENDBRANCH   8  11
ENDBRANCH   7   8
ENDBRANCH   1   7
BRANCH   6  13
ATOM     13  N   LIG d   1      -5.972  94.213 120.159  0.00  0.00    -0.311 N 
ATOM     14  C   LIG d   1      -6.690  95.277 119.807  0.00  0.00     0.210 C 
ATOM     15  C   LIG d   1      -7.690  95.761 120.862  0.00  0.00     0.109 C 
ATOM     16  O   LIG d   1      -6.617  95.848 118.708  0.00  0.00    -0.276 OA
ATOM     17  H   LIG d   1      -6.119  93.794 121.057  0.00  0.00     0.149 HD
ENDBRANCH   6  13
BRANCH   5  18
ATOM     18  N   LIG d   1      -6.493  93.050 117.383  0.00  0.00     0.381 N 
ATOM     19  H   LIG d   1      -6.197  92.834 116.452  0.00  0.00    -0.090 HD
ATOM     20  H   LIG d   1      -6.530  94.050 117.478  0.00  0.00    -0.090 HD
ATOM     21  H   LIG d   1      -7.394  92.659 117.552  0.00  0.00    -0.090 HD
ENDBRANCH   5  18
BRANCH   3  22
ATOM     22  C   LIG d   1      -2.576  90.352 117.938  0.00  0.00     0.382 C 
ATOM     23  O   LIG d   1      -3.098  89.212 117.898  0.00  0.00    -0.241 OA
ATOM     24  O   LIG d   1      -1.376  90.487 117.634  0.00  0.00    -0.241 OA
ENDBRANCH   3  22
TORSDOF 7
ENDMDL
MODEL 3
REMARK VINA RESULT:      -4.8      2.274      4.549
REMARK  7 active torsions:
REMARK  status: ('A' for Active; 'I' for Inactive)
REMARK    1  A    between atoms: C_2  and  C_3 
REMARK    2  A    between atoms: C_3  and  O_6 
REMARK    3  A    between atoms: C_3  and  C_4 
REMARK    4  A    between atoms: C_7  and  O_6 
REMARK    5  A    between atoms: C_9  and  C_10 
REMARK    6  A    between atoms: N_15  and  C_14 
REMARK    7  A    between atoms: N_20  and  C_19 
REMARK       I    between atoms: C_22  and  N_20 
ROOT
ATOM      1  C   LIG d   1      -4.426  93.263 119.136  0.00  0.00     0.161 C 
ATOM      2  C   LIG d   1      -5.483  92.864 118.301  0.00  0.00     0.016 C 
ATOM      3  C   LIG d   1      -5.375  91.820 117.354  0.00  0.00     0.038 C 
ATOM      4  C   LIG d   1      -4.240  90.998 117.282  0.00  0.00     0.028 C 
ATOM      5  C   LIG d   1      -2.964  91.684 117.756  0.00  0.00    -0.047 C 
ATOM      6  C   LIG d   1      -3.216  92.305 119.150  0.00  0.00     0.091 C 
ENDROOT
BRANCH   1   7
ATOM      7  O   LIG d   1      -4.914  93.473 120.476  0.00  0.00    -0.368 OA
BRANCH   7   8
ATOM      8  C   LIG d   1      -4.953  94.847 120.931  0.00  0.00     0.119 C 
BRANCH   8   9
ATOM      9  C   LIG d   1      -6.434  95.251 121.059  0.00  0.00     0.028 C 
ATOM     10  C   LIG d   1      -6.951  95.989 119.813  0.00  0.00     0.006 C 
ENDBRANCH   8   9
BRANCH   8  11
ATOM     11  C   LIG d   1      -4.362  95.798 119.886  0.00  0.00     0.028 C 
ATOM     12  C   LIG d   1      -3.087  96.504 120.375  0.00  0.00     0.006 C 
ENDBRANCH   8  11
ENDBRANCH   7   8
ENDBRANCH   1   7
BRANCH   6  13
ATOM     13  N   LIG d   1      -2.043  93.068 119.650  0.00  0.00    -0.311 N 
ATOM     14  C   LIG d   1      -1.097  92.536 120.422  0.00  0.00     0.210 C 
ATOM     15  C   LIG d   1       0.013  93.503 120.844  0.00  0.00     0.109 C 
ATOM     16  O   LIG d   1      -1.055  91.347 120.771  0.00  0.00    -0.276 OA
ATOM     17  H   LIG d   1      -1.982  94.033 119.389  0.00  0.00     0.149 HD
ENDBRANCH   6  13
BRANCH   5  18
ATOM     18  N   LIG d   1      -1.889  90.674 117.759  0.00  0.00     0.381 N 
ATOM     19  H   LIG d   1      -1.000  91.126 117.834  0.00  0.00    -0.090 HD
ATOM     20  H   LIG d   1      -1.914  90.171 116.890  0.00  0.00    -0.090 HD
ATOM     21  H   LIG d   1      -2.015  90.044 118.520  0.00  0.00    -0.090 HD
ENDBRANCH   5  18
BRANCH   3  22
ATOM     22  C   LIG d   1      -6.395  91.615 116.437  0.00  0.00     0.382 C 
ATOM     23  O   LIG d   1      -7.196  90.662 116.594  0.00  0.00    -0.241 OA
ATOM     24  O   LIG d   1      -6.498  92.344 115.433  0.00  0.00    -0.241 OA
ENDBRANCH   3  22
TORSDOF 7
ENDMDL
MODEL 4
REMARK VINA RESULT:      -4.6      3.058      6.236
REMARK  7 active torsions:
REMARK  status: ('A' for Active; 'I' for Inactive)
REMARK    1  A    between atoms: C_2  and  C_3 
REMARK    2  A    between atoms: C_3  and  O_6 
REMARK    3  A    between atoms: C_3  and  C_4 
REMARK    4  A    between atoms: C_7  and  O_6 
REMARK    5  A    between atoms: C_9  and  C_10 
REMARK    6  A    between atoms: N_15  and  C_14 
REMARK    7  A    between atoms: N_20  and  C_19 
REMARK       I    between atoms: C_22  and  N_20 
ROOT
ATOM      1  C   LIG d   1       0.183  90.322 116.910  0.00  0.00     0.161 C 
ATOM      2  C   LIG d   1       1.586  90.240 116.892  0.00  0.00     0.016 C 
ATOM      3  C   LIG d   1       2.426  91.102 117.633  0.00  0.00     0.038 C 
ATOM      4  C   LIG d   1       1.913  92.015 118.567  0.00  0.00     0.028 C 
ATOM      5  C   LIG d   1       0.496  92.478 118.245  0.00  0.00    -0.047 C 
ATOM      6  C   LIG d   1      -0.396  91.239 118.008  0.00  0.00     0.091 C 
ENDROOT
BRANCH   1   7
ATOM      7  O   LIG d   1      -0.383  89.000 117.010  0.00  0.00    -0.368 OA
BRANCH   7   8
ATOM      8  C   LIG d   1      -0.576  88.490 118.353  0.00  0.00     0.119 C 
BRANCH   8   9
ATOM      9  C   LIG d   1       0.235  87.185 118.473  0.00  0.00     0.028 C 
ATOM     10  C   LIG d   1       0.578  86.579 117.102  0.00  0.00     0.006 C 
ENDBRANCH   8   9
BRANCH   8  11
ATOM     11  C   LIG d   1      -2.034  88.085 118.590  0.00  0.00     0.028 C 
ATOM     12  C   LIG d   1      -2.246  87.387 119.942  0.00  0.00     0.006 C 
ENDBRANCH   8  11
ENDBRANCH   7   8
ENDBRANCH   1   7
BRANCH   6  13
ATOM     13  N   LIG d   1      -1.779  91.604 117.605  0.00  0.00    -0.311 N 
ATOM     14  C   LIG d   1      -2.786  91.727 118.468  0.00  0.00     0.210 C 
ATOM     15  C   LIG d   1      -4.135  92.092 117.840  0.00  0.00     0.109 C 
ATOM     16  O   LIG d   1      -2.683  91.601 119.697  0.00  0.00    -0.276 OA
ATOM     17  H   LIG d   1      -1.945  91.756 116.629  0.00  0.00     0.149 HD
ENDBRANCH   6  13
BRANCH   5  18
ATOM     18  N   LIG d   1       0.035  93.316 119.369  0.00  0.00     0.381 N 
ATOM     19  H   LIG d   1      -0.930  93.548 119.244  0.00  0.00    -0.090 HD
ATOM     20  H   LIG d   1       0.566  94.169 119.378  0.00  0.00    -0.090 HD
ATOM     21  H   LIG d   1       0.159  92.830 120.230  0.00  0.00    -0.090 HD
ENDBRANCH   5  18
BRANCH   3  22
ATOM     22  C   LIG d   1       3.795  91.084 117.414  0.00  0.00     0.382 C 
ATOM     23  O   LIG d   1       4.371  92.102 116.960  0.00  0.00    -0.241 OA
ATOM     24  O   LIG d   1       4.454  90.048 117.623  0.00  0.00    -0.241 OA
ENDBRANCH   3  22
TORSDOF 7
ENDMDL
MODEL 5
REMARK VINA RESULT:      -4.5      2.441      4.470
REMARK  7 active torsions:
REMARK  status: ('A' for Active; 'I' for Inactive)
REMARK    1  A    between atoms: C_2  and  C_3 
REMARK    2  A    between atoms: C_3  and  O_6 
REMARK    3  A    between atoms: C_3  and  C_4 
REMARK    4  A    between atoms: C_7  and  O_6 
REMARK    5  A    between atoms: C_9  and  C_10 
REMARK    6  A    between atoms: N_15  and  C_14 
REMARK    7  A    between atoms: N_20  and  C_19 
REMARK       I    between atoms: C_22  and  N_20 
ROOT
ATOM      1  C   LIG d   1      -3.619  92.625 119.137  0.00  0.00     0.161 C 
ATOM      2  C   LIG d   1      -4.727  93.473 119.295  0.00  0.00     0.016 C 
ATOM      3  C   LIG d   1      -5.877  93.413 118.474  0.00  0.00     0.038 C 
ATOM      4  C   LIG d   1      -6.059  92.393 117.527  0.00  0.00     0.028 C 
ATOM      5  C   LIG d   1      -4.750  91.824 116.990  0.00  0.00    -0.047 C 
ATOM      6  C   LIG d   1      -3.846  91.434 118.182  0.00  0.00     0.091 C 
ENDROOT
BRANCH   1   7
ATOM      7  O   LIG d   1      -3.174  92.156 120.425  0.00  0.00    -0.368 OA
BRANCH   7   8
ATOM      8  C   LIG d   1      -1.972  92.773 120.948  0.00  0.00     0.119 C 
BRANCH   8   9
ATOM      9  C   LIG d   1      -0.859  91.707 120.930  0.00  0.00     0.028 C 
ATOM     10  C   LIG d   1      -1.311  90.376 121.554  0.00  0.00     0.006 C 
ENDBRANCH   8   9
BRANCH   8  11
ATOM     11  C   LIG d   1      -2.139  93.159 122.421  0.00  0.00     0.028 C 
ATOM     12  C   LIG d   1      -2.000  94.671 122.660  0.00  0.00     0.006 C 
ENDBRANCH   8  11
ENDBRANCH   7   8
ENDBRANCH   1   7
BRANCH   6  13
ATOM     13  N   LIG d   1      -2.512  90.947 117.745  0.00  0.00    -0.311 N 
ATOM     14  C   LIG d   1      -2.085  89.701 117.947  0.00  0.00     0.210 C 
ATOM     15  C   LIG d   1      -0.670  89.412 117.436  0.00  0.00     0.109 C 
ATOM     16  O   LIG d   1      -2.755  88.800 118.472  0.00  0.00    -0.276 OA
ATOM     17  H   LIG d   1      -1.915  91.604 117.283  0.00  0.00     0.149 HD
ENDBRANCH   6  13
BRANCH   5  18
ATOM     18  N   LIG d   1      -5.085  90.681 116.120  0.00  0.00     0.381 N 
ATOM     19  H   LIG d   1      -4.921  89.824 116.609  0.00  0.00    -0.090 HD
ATOM     20  H   LIG d   1      -4.489  90.702 115.312  0.00  0.00    -0.090 HD
ATOM     21  H   LIG d   1      -6.040  90.734 115.840  0.00  0.00    -0.090 HD
ENDBRANCH   5  18
BRANCH   3  22
ATOM     22  C   LIG d   1      -6.841  94.405 118.568  0.00  0.00     0.382 C 
ATOM     23  O   LIG d   1      -6.678  95.365 119.359  0.00  0.00    -0.241 OA
ATOM     24  O   LIG d   1      -7.893  94.328 117.905  0.00  0.00    -0.241 OA
ENDBRANCH   3  22
TORSDOF 7
ENDMDL
MODEL 6
REMARK VINA RESULT:      -4.4      2.651      4.008
REMARK  7 active torsions:
REMARK  status: ('A' for Active; 'I' for Inactive)
REMARK    1  A    between atoms: C_2  and  C_3 
REMARK    2  A    between atoms: C_3  and  O_6 
REMARK    3  A    between atoms: C_3  and  C_4 
REMARK    4  A    between atoms: C_7  and  O_6 
REMARK    5  A    between atoms: C_9  and  C_10 
REMARK    6  A    between atoms: N_15  and  C_14 
REMARK    7  A    between atoms: N_20  and  C_19 
REMARK       I    between atoms: C_22  and  N_20 
ROOT
ATOM      1  C   LIG d   1      -5.003  93.351 119.033  0.00  0.00     0.161 C 
ATOM      2  C   LIG d   1      -6.313  93.781 118.767  0.00  0.00     0.016 C 
ATOM      3  C   LIG d   1      -6.834  95.016 119.218  0.00  0.00     0.038 C 
ATOM      4  C   LIG d   1      -6.025  95.978 119.842  0.00  0.00     0.028 C 
ATOM      5  C   LIG d   1      -4.830  95.380 120.576  0.00  0.00    -0.047 C 
ATOM      6  C   LIG d   1      -4.072  94.435 119.616  0.00  0.00     0.091 C 
ENDROOT
BRANCH   1   7
ATOM      7  O   LIG d   1      -4.424  92.782 117.841  0.00  0.00    -0.368 OA
BRANCH   7   8
ATOM      8  C   LIG d   1      -4.348  91.336 117.798  0.00  0.00     0.119 C 
BRANCH   8   9
ATOM      9  C   LIG d   1      -2.856  90.951 117.783  0.00  0.00     0.028 C 
ATOM     10  C   LIG d   1      -2.622  89.488 118.197  0.00  0.00     0.006 C 
ENDBRANCH   8   9
BRANCH   8  11
ATOM     11  C   LIG d   1      -4.922  90.786 116.489  0.00  0.00     0.028 C 
ATOM     12  C   LIG d   1      -6.419  91.091 116.320  0.00  0.00     0.006 C 
ENDBRANCH   8  11
ENDBRANCH   7   8
ENDBRANCH   1   7
BRANCH   6  13
ATOM     13  N   LIG d   1      -2.937  93.743 120.280  0.00  0.00    -0.311 N 
ATOM     14  C   LIG d   1      -1.691  93.759 119.809  0.00  0.00     0.210 C 
ATOM     15  C   LIG d   1      -0.676  92.965 120.637  0.00  0.00     0.109 C 
ATOM     16  O   LIG d   1      -1.324  94.383 118.802  0.00  0.00    -0.276 OA
ATOM     17  H   LIG d   1      -3.139  93.238 121.121  0.00  0.00     0.149 HD
ENDBRANCH   6  13
BRANCH   5  18
ATOM     18  N   LIG d   1      -3.999  96.499 121.061  0.00  0.00     0.381 N 
ATOM     19  H   LIG d   1      -4.584  97.273 121.305  0.00  0.00    -0.090 HD
ATOM     20  H   LIG d   1      -3.382  96.789 120.323  0.00  0.00    -0.090 HD
ATOM     21  H   LIG d   1      -3.468  96.211 121.853  0.00  0.00    -0.090 HD
ENDBRANCH   5  18
BRANCH   3  22
ATOM     22  C   LIG d   1      -8.187  95.282 119.082  0.00  0.00     0.382 C 
ATOM     23  O   LIG d   1      -8.873  95.577 120.090  0.00  0.00    -0.241 OA
ATOM     24  O   LIG d   1      -8.741  95.188 117.970  0.00  0.00    -0.241 OA
ENDBRANCH   3  22
TORSDOF 7
ENDMDL
MODEL 7
REMARK VINA RESULT:      -4.3      2.343      5.928
REMARK  7 active torsions:
REMARK  status: ('A' for Active; 'I' for Inactive)
REMARK    1  A    between atoms: C_2  and  C_3 
REMARK    2  A    between atoms: C_3  and  O_6 
REMARK    3  A    between atoms: C_3  and  C_4 
REMARK    4  A    between atoms: C_7  and  O_6 
REMARK    5  A    between atoms: C_9  and  C_10 
REMARK    6  A    between atoms: N_15  and  C_14 
REMARK    7  A    between atoms: N_20  and  C_19 
REMARK       I    between atoms: C_22  and  N_20 
ROOT
ATOM      1  C   LIG d   1      -3.040  92.902 119.628  0.00  0.00     0.161 C 
ATOM      2  C   LIG d   1      -2.947  94.302 119.711  0.00  0.00     0.016 C 
ATOM      3  C   LIG d   1      -1.997  95.063 118.992  0.00  0.00     0.038 C 
ATOM      4  C   LIG d   1      -1.167  94.485 118.019  0.00  0.00     0.028 C 
ATOM      5  C   LIG d   1      -0.879  93.009 118.268  0.00  0.00    -0.047 C 
ATOM      6  C   LIG d   1      -2.217  92.266 118.488  0.00  0.00     0.091 C 
ENDROOT
BRANCH   1   7
ATOM      7  O   LIG d   1      -4.423  92.509 119.527  0.00  0.00    -0.368 OA
BRANCH   7   8
ATOM      8  C   LIG d   1      -5.216  93.217 118.543  0.00  0.00     0.119 C 
BRANCH   8   9
ATOM      9  C   LIG d   1      -6.077  94.249 119.297  0.00  0.00     0.028 C 
ATOM     10  C   LIG d   1      -7.193  94.837 118.417  0.00  0.00     0.006 C 
ENDBRANCH   8   9
BRANCH   8  11
ATOM     11  C   LIG d   1      -6.215  92.281 117.855  0.00  0.00     0.028 C 
ATOM     12  C   LIG d   1      -5.930  92.103 116.356  0.00  0.00     0.006 C 
ENDBRANCH   8  11
ENDBRANCH   7   8
ENDBRANCH   1   7
BRANCH   6  13
ATOM     13  N   LIG d   1      -2.021  90.831 118.822  0.00  0.00    -0.311 N 
ATOM     14  C   LIG d   1      -2.721  89.846 118.263  0.00  0.00     0.210 C 
ATOM     15  C   LIG d   1      -2.374  88.441 118.764  0.00  0.00     0.109 C 
ATOM     16  O   LIG d   1      -3.575  90.000 117.376  0.00  0.00    -0.276 OA
ATOM     17  H   LIG d   1      -1.326  90.614 119.509  0.00  0.00     0.149 HD
ENDBRANCH   6  13
BRANCH   5  18
ATOM     18  N   LIG d   1      -0.120  92.501 117.110  0.00  0.00     0.381 N 
ATOM     19  H   LIG d   1      -0.534  92.833 116.262  0.00  0.00    -0.090 HD
ATOM     20  H   LIG d   1      -0.161  91.497 117.109  0.00  0.00    -0.090 HD
ATOM     21  H   LIG d   1       0.828  92.802 117.165  0.00  0.00    -0.090 HD
ENDBRANCH   5  18
BRANCH   3  22
ATOM     22  C   LIG d   1      -1.842  96.412 119.273  0.00  0.00     0.382 C 
ATOM     23  O   LIG d   1      -2.649  97.247 118.798  0.00  0.00    -0.241 OA
ATOM     24  O   LIG d   1      -0.881  96.808 119.958  0.00  0.00    -0.241 OA
ENDBRANCH   3  22
TORSDOF 7
ENDMDL
MODEL 8
REMARK VINA RESULT:      -4.3      2.124      4.256
REMARK  7 active torsions:
REMARK  status: ('A' for Active; 'I' for Inactive)
REMARK    1  A    between atoms: C_2  and  C_3 
REMARK    2  A    between atoms: C_3  and  O_6 
REMARK    3  A    between atoms: C_3  and  C_4 
REMARK    4  A    between atoms: C_7  and  O_6 
REMARK    5  A    between atoms: C_9  and  C_10 
REMARK    6  A    between atoms: N_15  and  C_14 
REMARK    7  A    between atoms: N_20  and  C_19 
REMARK       I    between atoms: C_22  and  N_20 
ROOT
ATOM      1  C   LIG d   1      -3.456  93.090 119.047  0.00  0.00     0.161 C 
ATOM      2  C   LIG d   1      -4.699  92.857 118.436  0.00  0.00     0.016 C 
ATOM      3  C   LIG d   1      -4.947  91.771 117.565  0.00  0.00     0.038 C 
ATOM      4  C   LIG d   1      -4.004  90.752 117.363  0.00  0.00     0.028 C 
ATOM      5  C   LIG d   1      -2.564  91.212 117.561  0.00  0.00    -0.047 C 
ATOM      6  C   LIG d   1      -2.448  91.927 118.926  0.00  0.00     0.091 C 
ENDROOT
BRANCH   1   7
ATOM      7  O   LIG d   1      -3.649  93.443 120.431  0.00  0.00    -0.368 OA
BRANCH   7   8
ATOM      8  C   LIG d   1      -3.463  94.841 120.764  0.00  0.00     0.119 C 
BRANCH   8   9
ATOM      9  C   LIG d   1      -2.129  94.961 121.526  0.00  0.00     0.028 C 
ATOM     10  C   LIG d   1      -1.056  95.708 120.716  0.00  0.00     0.006 C 
ENDBRANCH   8   9
BRANCH   8  11
ATOM     11  C   LIG d   1      -4.535  95.328 121.743  0.00  0.00     0.028 C 
ATOM     12  C   LIG d   1      -5.950  94.869 121.355  0.00  0.00     0.006 C 
ENDBRANCH   8  11
ENDBRANCH   7   8
ENDBRANCH   1   7
BRANCH   6  13
ATOM     13  N   LIG d   1      -1.090  92.482 119.162  0.00  0.00    -0.311 N 
ATOM     14  C   LIG d   1      -0.146  91.843 119.850  0.00  0.00     0.210 C 
ATOM     15  C   LIG d   1       1.177  92.602 119.992  0.00  0.00     0.109 C 
ATOM     16  O   LIG d   1      -0.267  90.705 120.328  0.00  0.00    -0.276 OA
ATOM     17  H   LIG d   1      -0.895  93.388 118.782  0.00  0.00     0.149 HD
ENDBRANCH   6  13
BRANCH   5  18
ATOM     18  N   LIG d   1      -1.698  90.022 117.456  0.00  0.00     0.381 N 
ATOM     19  H   LIG d   1      -1.278  89.988 116.548  0.00  0.00    -0.090 HD
ATOM     20  H   LIG d   1      -2.262  89.199 117.573  0.00  0.00    -0.090 HD
ATOM     21  H   LIG d   1      -0.991  90.052 118.157  0.00  0.00    -0.090 HD
ENDBRANCH   5  18
BRANCH   3  22
ATOM     22  C   LIG d   1      -6.136  91.719 116.853  0.00  0.00     0.382 C 
ATOM     23  O   LIG d   1      -6.845  92.748 116.740  0.00  0.00    -0.241 OA
ATOM     24  O   LIG d   1      -6.531  90.645 116.361  0.00  0.00    -0.241 OA
ENDBRANCH   3  22
TORSDOF 7
ENDMDL
MODEL 9
REMARK VINA RESULT:      -4.3      3.571      6.798
REMARK  7 active torsions:
REMARK  status: ('A' for Active; 'I' for Inactive)
REMARK    1  A    between atoms: C_2  and  C_3 
REMARK    2  A    between atoms: C_3  and  O_6 
REMARK    3  A    between atoms: C_3  and  C_4 
REMARK    4  A    between atoms: C_7  and  O_6 
REMARK    5  A    between atoms: C_9  and  C_10 
REMARK    6  A    between atoms: N_15  and  C_14 
REMARK    7  A    between atoms: N_20  and  C_19 
REMARK       I    between atoms: C_22  and  N_20 
ROOT
ATOM      1  C   LIG d   1       0.724  90.554 119.029  0.00  0.00     0.161 C 
ATOM      2  C   LIG d   1       1.798  91.087 118.298  0.00  0.00     0.016 C 
ATOM      3  C   LIG d   1       2.348  90.463 117.155  0.00  0.00     0.038 C 
ATOM      4  C   LIG d   1       1.759  89.331 116.573  0.00  0.00     0.028 C 
ATOM      5  C   LIG d   1       0.980  88.475 117.566  0.00  0.00    -0.047 C 
ATOM      6  C   LIG d   1      -0.004  89.378 118.344  0.00  0.00     0.091 C 
ENDROOT
BRANCH   1   7
ATOM      7  O   LIG d   1      -0.212  91.600 119.356  0.00  0.00    -0.368 OA
BRANCH   7   8
ATOM      8  C   LIG d   1      -1.170  91.943 118.324  0.00  0.00     0.119 C 
BRANCH   8   9
ATOM      9  C   LIG d   1      -0.866  93.385 117.872  0.00  0.00     0.028 C 
ATOM     10  C   LIG d   1      -0.189  94.216 118.975  0.00  0.00     0.006 C 
ENDBRANCH   8   9
BRANCH   8  11
ATOM     11  C   LIG d   1      -2.597  91.985 118.880  0.00  0.00     0.028 C 
ATOM     12  C   LIG d   1      -3.651  91.551 117.849  0.00  0.00     0.006 C 
ENDBRANCH   8  11
ENDBRANCH   7   8
ENDBRANCH   1   7
BRANCH   6  13
ATOM     13  N   LIG d   1      -0.745  88.634 119.395  0.00  0.00    -0.311 N 
ATOM     14  C   LIG d   1      -1.975  88.152 119.223  0.00  0.00     0.210 C 
ATOM     15  C   LIG d   1      -2.564  87.434 120.441  0.00  0.00     0.109 C 
ATOM     16  O   LIG d   1      -2.620  88.222 118.167  0.00  0.00    -0.276 OA
ATOM     17  H   LIG d   1      -0.283  88.504 120.274  0.00  0.00     0.149 HD
ENDBRANCH   6  13
BRANCH   5  18
ATOM     18  N   LIG d   1       0.306  87.409 116.802  0.00  0.00     0.381 N 
ATOM     19  H   LIG d   1       0.779  87.263 115.932  0.00  0.00    -0.090 HD
ATOM     20  H   LIG d   1      -0.636  87.697 116.603  0.00  0.00    -0.090 HD
ATOM     21  H   LIG d   1       0.298  86.564 117.329  0.00  0.00    -0.090 HD
ENDBRANCH   5  18
BRANCH   3  22
ATOM     22  C   LIG d   1       3.525  90.949 116.606  0.00  0.00     0.382 C 
ATOM     23  O   LIG d   1       4.026  92.015 117.039  0.00  0.00    -0.241 OA
ATOM     24  O   LIG d   1       4.068  90.359 115.653  0.00  0.00    -0.241 OA
ENDBRANCH   3  22
TORSDOF 7
ENDMDL
