MODEL 1
REMARK VINA RESULT:      -5.0      0.000      0.000
REMARK  7 active torsions:
REMARK  status: ('A' for Active; 'I' for Inactive)
REMARK    1  A    between atoms: C_2  and  C_3 
REMARK    2  A    between atoms: C_3  and  O_6 
REMARK    3  A    between atoms: C_3  and  C_4 
REMARK    4  A    between atoms: C_7  and  O_6 
REMARK    5  A    between atoms: C_9  and  C_10 
REMARK    6  A    between atoms: N_15  and  C_14 
REMARK    7  A    between atoms: N_20  and  C_19 
REMARK       I    between atoms: C_22  and  N_20 
ROOT
ATOM      1  C   LIG d   1      -3.191  91.635 118.210  0.00  0.00     0.161 C 
ATOM      2  C   LIG d   1      -3.770  90.879 117.178  0.00  0.00     0.016 C 
ATOM      3  C   LIG d   1      -5.081  91.096 116.695  0.00  0.00     0.038 C 
ATOM      4  C   LIG d   1      -5.852  92.191 117.112  0.00  0.00     0.028 C 
ATOM      5  C   LIG d   1      -5.503  92.680 118.513  0.00  0.00    -0.047 C 
ATOM      6  C   LIG d   1      -3.976  92.905 118.600  0.00  0.00     0.091 C 
ENDROOT
BRANCH   1   7
ATOM      7  O   LIG d   1      -1.832  91.972 117.866  0.00  0.00    -0.368 OA
BRANCH   7   8
ATOM      8  C   LIG d   1      -0.797  91.311 118.634  0.00  0.00     0.119 C 
BRANCH   8   9
ATOM      9  C   LIG d   1       0.052  90.484 117.650  0.00  0.00     0.028 C 
ATOM     10  C   LIG d   1      -0.597  89.133 117.306  0.00  0.00     0.006 C 
ENDBRANCH   8   9
BRANCH   8  11
ATOM     11  C   LIG d   1      -1.393  90.292 119.611  0.00  0.00     0.028 C 
ATOM     12  C   LIG d   1      -1.128  90.651 121.082  0.00  0.00     0.006 C 
ENDBRANCH   8  11
ENDBRANCH   7   8
ENDBRANCH   1   7
BRANCH   6  13
ATOM     13  N   LIG d   1      -3.539  93.304 119.964  0.00  0.00    -0.311 N 
ATOM     14  C   LIG d   1      -2.962  94.473 120.236  0.00  0.00     0.210 C 
ATOM     15  C   LIG d   1      -2.571  94.675 121.703  0.00  0.00     0.109 C 
ATOM     16  O   LIG d   1      -2.768  95.376 119.408  0.00  0.00    -0.276 OA
ATOM     17  H   LIG d   1      -3.687  92.643 120.701  0.00  0.00     0.149 HD
ENDBRANCH   6  13
BRANCH   5  18
ATOM     18  N   LIG d   1      -6.283  93.906 118.765  0.00  0.00     0.381 N 
ATOM     19  H   LIG d   1      -7.040  93.966 118.113  0.00  0.00    -0.090 HD
ATOM     20  H   LIG d   1      -5.688  94.704 118.630  0.00  0.00    -0.090 HD
ATOM     21  H   LIG d   1      -6.637  93.900 119.696  0.00  0.00    -0.090 HD
ENDBRANCH   5  18
BRANCH   3  22
ATOM     22  C   LIG d   1      -5.648  90.189 115.813  0.00  0.00     0.382 C 
ATOM     23  O   LIG d   1      -6.832  90.343 115.430  0.00  0.00    -0.241 OA
ATOM     24  O   LIG d   1      -5.004  89.193 115.431  0.00  0.00    -0.241 OA
ENDBRANCH   3  22
TORSDOF 7
ENDMDL
MODEL 2
REMARK VINA RESULT:      -5.0      1.873      2.596
REMARK  7 active torsions:
REMARK  status: ('A' for Active; 'I' for Inactive)
REMARK    1  A    between atoms: C_2  and  C_3 
REMARK    2  A    between atoms: C_3  and  O_6 
REMARK    3  A    between atoms: C_3  and  C_4 
REMARK    4  A    between atoms: C_7  and  O_6 
REMARK    5  A    between atoms: C_9  and  C_10 
REMARK    6  A    between atoms: N_15  and  C_14 
REMARK    7  A    between atoms: N_20  and  C_19 
REMARK       I    between atoms: C_22  and  N_20 
ROOT
ATOM      1  C   LIG d   1      -3.082  92.500 119.235  0.00  0.00     0.161 C 
ATOM      2  C   LIG d   1      -3.003  91.466 118.288  0.00  0.00     0.016 C 
ATOM      3  C   LIG d   1      -4.049  91.151 117.390  0.00  0.00     0.038 C 
ATOM      4  C   LIG d   1      -5.194  91.952 117.276  0.00  0.00     0.028 C 
ATOM      5  C   LIG d   1      -5.538  92.704 118.557  0.00  0.00    -0.047 C 
ATOM      6  C   LIG d   1      -4.280  93.456 119.050  0.00  0.00     0.091 C 
ENDROOT
BRANCH   1   7
ATOM      7  O   LIG d   1      -1.847  93.243 119.252  0.00  0.00    -0.368 OA
BRANCH   7   8
ATOM      8  C   LIG d   1      -1.728  94.305 118.274  0.00  0.00     0.119 C 
BRANCH   8   9
ATOM      9  C   LIG d   1      -0.565  93.938 117.332  0.00  0.00     0.028 C 
ATOM     10  C   LIG d   1       0.411  92.934 117.968  0.00  0.00     0.006 C 
ENDBRANCH   8   9
BRANCH   8  11
ATOM     11  C   LIG d   1      -1.316  95.625 118.932  0.00  0.00     0.028 C 
ATOM     12  C   LIG d   1      -1.059  95.484 120.441  0.00  0.00     0.006 C 
ENDBRANCH   8  11
ENDBRANCH   7   8
ENDBRANCH   1   7
BRANCH   6  13
ATOM     13  N   LIG d   1      -4.505  94.150 120.345  0.00  0.00    -0.311 N 
ATOM     14  C   LIG d   1      -4.824  95.440 120.439  0.00  0.00     0.210 C 
ATOM     15  C   LIG d   1      -4.992  95.961 121.870  0.00  0.00     0.109 C 
ATOM     16  O   LIG d   1      -5.014  96.194 119.473  0.00  0.00    -0.276 OA
ATOM     17  H   LIG d   1      -4.402  93.605 121.178  0.00  0.00     0.149 HD
ENDBRANCH   6  13
BRANCH   5  18
ATOM     18  N   LIG d   1      -6.668  93.604 118.257  0.00  0.00     0.381 N 
ATOM     19  H   LIG d   1      -6.413  94.548 118.465  0.00  0.00    -0.090 HD
ATOM     20  H   LIG d   1      -7.447  93.351 118.838  0.00  0.00    -0.090 HD
ATOM     21  H   LIG d   1      -6.921  93.524 117.296  0.00  0.00    -0.090 HD
ENDBRANCH   5  18
BRANCH   3  22
ATOM     22  C   LIG d   1      -3.971  89.999 116.622  0.00  0.00     0.382 C 
ATOM     23  O   LIG d   1      -4.820  89.787 115.723  0.00  0.00    -0.241 OA
ATOM     24  O   LIG d   1      -3.089  89.148 116.846  0.00  0.00    -0.241 OA
ENDBRANCH   3  22
TORSDOF 7
ENDMDL
MODEL 3
REMARK VINA RESULT:      -4.9      2.315      4.442
REMARK  7 active torsions:
REMARK  status: ('A' for Active; 'I' for Inactive)
REMARK    1  A    between atoms: C_2  and  C_3 
REMARK    2  A    between atoms: C_3  and  O_6 
REMARK    3  A    between atoms: C_3  and  C_4 
REMARK    4  A    between atoms: C_7  and  O_6 
REMARK    5  A    between atoms: C_9  and  C_10 
REMARK    6  A    between atoms: N_15  and  C_14 
REMARK    7  A    between atoms: N_20  and  C_19 
REMARK       I    between atoms: C_22  and  N_20 
ROOT
ATOM      1  C   LIG d   1      -3.154  92.304 118.487  0.00  0.00     0.161 C 
ATOM      2  C   LIG d   1      -4.266  92.014 117.679  0.00  0.00     0.016 C 
ATOM      3  C   LIG d   1      -4.368  90.848 116.885  0.00  0.00     0.038 C 
ATOM      4  C   LIG d   1      -3.424  89.813 116.963  0.00  0.00     0.028 C 
ATOM      5  C   LIG d   1      -2.037  90.289 117.382  0.00  0.00    -0.047 C 
ATOM      6  C   LIG d   1      -2.165  91.134 118.670  0.00  0.00     0.091 C 
ENDROOT
BRANCH   1   7
ATOM      7  O   LIG d   1      -3.596  92.792 119.769  0.00  0.00    -0.368 OA
BRANCH   7   8
ATOM      8  C   LIG d   1      -4.911  93.399 119.802  0.00  0.00     0.119 C 
BRANCH   8   9
ATOM      9  C   LIG d   1      -4.714  94.920 119.961  0.00  0.00     0.028 C 
ATOM     10  C   LIG d   1      -3.505  95.265 120.845  0.00  0.00     0.006 C 
ENDBRANCH   8   9
BRANCH   8  11
ATOM     11  C   LIG d   1      -5.698  92.960 121.040  0.00  0.00     0.028 C 
ATOM     12  C   LIG d   1      -6.976  93.786 121.258  0.00  0.00     0.006 C 
ENDBRANCH   8  11
ENDBRANCH   7   8
ENDBRANCH   1   7
BRANCH   6  13
ATOM     13  N   LIG d   1      -0.864  91.709 119.102  0.00  0.00    -0.311 N 
ATOM     14  C   LIG d   1      -0.034  91.095 119.944  0.00  0.00     0.210 C 
ATOM     15  C   LIG d   1       1.245  91.871 120.273  0.00  0.00     0.109 C 
ATOM     16  O   LIG d   1      -0.221  89.966 120.424  0.00  0.00    -0.276 OA
ATOM     17  H   LIG d   1      -0.618  92.608 118.736  0.00  0.00     0.149 HD
ENDBRANCH   6  13
BRANCH   5  18
ATOM     18  N   LIG d   1      -1.190  89.094 117.556  0.00  0.00     0.381 N 
ATOM     19  H   LIG d   1      -1.766  88.287 117.688  0.00  0.00    -0.090 HD
ATOM     20  H   LIG d   1      -0.623  89.214 118.377  0.00  0.00    -0.090 HD
ATOM     21  H   LIG d   1      -0.608  88.969 116.757  0.00  0.00    -0.090 HD
ENDBRANCH   5  18
BRANCH   3  22
ATOM     22  C   LIG d   1      -5.404  90.727 115.972  0.00  0.00     0.382 C 
ATOM     23  O   LIG d   1      -5.885  91.752 115.430  0.00  0.00    -0.241 OA
ATOM     24  O   LIG d   1      -5.894  89.611 115.715  0.00  0.00    -0.241 OA
ENDBRANCH   3  22
TORSDOF 7
ENDMDL
MODEL 4
REMARK VINA RESULT:      -4.8      0.764      1.638
REMARK  7 active torsions:
REMARK  status: ('A' for Active; 'I' for Inactive)
REMARK    1  A    between atoms: C_2  and  C_3 
REMARK    2  A    between atoms: C_3  and  O_6 
REMARK    3  A    between atoms: C_3  and  C_4 
REMARK    4  A    between atoms: C_7  and  O_6 
REMARK    5  A    between atoms: C_9  and  C_10 
REMARK    6  A    between atoms: N_15  and  C_14 
REMARK    7  A    between atoms: N_20  and  C_19 
REMARK       I    between atoms: C_22  and  N_20 
ROOT
ATOM      1  C   LIG d   1      -3.211  91.770 118.145  0.00  0.00     0.161 C 
ATOM      2  C   LIG d   1      -3.806  91.000 117.132  0.00  0.00     0.016 C 
ATOM      3  C   LIG d   1      -5.144  91.172 116.708  0.00  0.00     0.038 C 
ATOM      4  C   LIG d   1      -5.936  92.235 117.166  0.00  0.00     0.028 C 
ATOM      5  C   LIG d   1      -5.544  92.727 118.556  0.00  0.00    -0.047 C 
ATOM      6  C   LIG d   1      -4.024  93.007 118.579  0.00  0.00     0.091 C 
ENDROOT
BRANCH   1   7
ATOM      7  O   LIG d   1      -1.882  92.159 117.745  0.00  0.00    -0.368 OA
BRANCH   7   8
ATOM      8  C   LIG d   1      -0.801  91.701 118.595  0.00  0.00     0.119 C 
BRANCH   8   9
ATOM      9  C   LIG d   1       0.054  92.931 118.959  0.00  0.00     0.028 C 
ATOM     10  C   LIG d   1       0.462  92.943 120.442  0.00  0.00     0.006 C 
ENDBRANCH   8   9
BRANCH   8  11
ATOM     11  C   LIG d   1       0.142  90.761 117.839  0.00  0.00     0.028 C 
ATOM     12  C   LIG d   1      -0.480  89.380 117.574  0.00  0.00     0.006 C 
ENDBRANCH   8  11
ENDBRANCH   7   8
ENDBRANCH   1   7
BRANCH   6  13
ATOM     13  N   LIG d   1      -3.543  93.412 119.925  0.00  0.00    -0.311 N 
ATOM     14  C   LIG d   1      -3.013  94.606 120.186  0.00  0.00     0.210 C 
ATOM     15  C   LIG d   1      -2.563  94.811 121.636  0.00  0.00     0.109 C 
ATOM     16  O   LIG d   1      -2.902  95.526 119.362  0.00  0.00    -0.276 OA
ATOM     17  H   LIG d   1      -3.624  92.737 120.661  0.00  0.00     0.149 HD
ENDBRANCH   6  13
BRANCH   5  18
ATOM     18  N   LIG d   1      -6.357  93.921 118.851  0.00  0.00     0.381 N 
ATOM     19  H   LIG d   1      -7.088  94.011 118.173  0.00  0.00    -0.090 HD
ATOM     20  H   LIG d   1      -5.772  94.736 118.793  0.00  0.00    -0.090 HD
ATOM     21  H   LIG d   1      -6.749  93.850 119.764  0.00  0.00    -0.090 HD
ENDBRANCH   5  18
BRANCH   3  22
ATOM     22  C   LIG d   1      -5.715  90.250 115.843  0.00  0.00     0.382 C 
ATOM     23  O   LIG d   1      -6.917  90.368 115.506  0.00  0.00    -0.241 OA
ATOM     24  O   LIG d   1      -5.055  89.277 115.432  0.00  0.00    -0.241 OA
ENDBRANCH   3  22
TORSDOF 7
ENDMDL
MODEL 5
REMARK VINA RESULT:      -4.7      1.681      2.512
REMARK  7 active torsions:
REMARK  status: ('A' for Active; 'I' for Inactive)
REMARK    1  A    between atoms: C_2  and  C_3 
REMARK    2  A    between atoms: C_3  and  O_6 
REMARK    3  A    between atoms: C_3  and  C_4 
REMARK    4  A    between atoms: C_7  and  O_6 
REMARK    5  A    between atoms: C_9  and  C_10 
REMARK    6  A    between atoms: N_15  and  C_14 
REMARK    7  A    between atoms: N_20  and  C_19 
REMARK       I    between atoms: C_22  and  N_20 
ROOT
ATOM      1  C   LIG d   1      -2.205  90.760 118.048  0.00  0.00     0.161 C 
ATOM      2  C   LIG d   1      -3.168  90.291 117.139  0.00  0.00     0.016 C 
ATOM      3  C   LIG d   1      -4.390  90.955 116.887  0.00  0.00     0.038 C 
ATOM      4  C   LIG d   1      -4.668  92.223 117.419  0.00  0.00     0.028 C 
ATOM      5  C   LIG d   1      -3.947  92.499 118.734  0.00  0.00    -0.047 C 
ATOM      6  C   LIG d   1      -2.442  92.199 118.555  0.00  0.00     0.091 C 
ENDROOT
BRANCH   1   7
ATOM      7  O   LIG d   1      -0.890  90.642 117.471  0.00  0.00    -0.368 OA
BRANCH   7   8
ATOM      8  C   LIG d   1      -0.172  89.419 117.766  0.00  0.00     0.119 C 
BRANCH   8   9
ATOM      9  C   LIG d   1       0.743  89.698 118.974  0.00  0.00     0.028 C 
ATOM     10  C   LIG d   1       2.117  90.247 118.555  0.00  0.00     0.006 C 
ENDBRANCH   8   9
BRANCH   8  11
ATOM     11  C   LIG d   1       0.772  89.037 116.622  0.00  0.00     0.028 C 
ATOM     12  C   LIG d   1       0.688  87.548 116.252  0.00  0.00     0.006 C 
ENDBRANCH   8  11
ENDBRANCH   7   8
ENDBRANCH   1   7
BRANCH   6  13
ATOM     13  N   LIG d   1      -1.676  92.362 119.818  0.00  0.00    -0.311 N 
ATOM     14  C   LIG d   1      -0.607  93.148 119.930  0.00  0.00     0.210 C 
ATOM     15  C   LIG d   1       0.046  93.157 121.316  0.00  0.00     0.109 C 
ATOM     16  O   LIG d   1      -0.156  93.863 119.023  0.00  0.00    -0.276 OA
ATOM     17  H   LIG d   1      -1.992  91.842 120.613  0.00  0.00     0.149 HD
ENDBRANCH   6  13
BRANCH   5  18
ATOM     18  N   LIG d   1      -4.217  93.901 119.104  0.00  0.00     0.381 N 
ATOM     19  H   LIG d   1      -5.081  93.959 119.605  0.00  0.00    -0.090 HD
ATOM     20  H   LIG d   1      -4.301  94.448 118.266  0.00  0.00    -0.090 HD
ATOM     21  H   LIG d   1      -3.475  94.254 119.667  0.00  0.00    -0.090 HD
ENDBRANCH   5  18
BRANCH   3  22
ATOM     22  C   LIG d   1      -5.367  90.332 116.126  0.00  0.00     0.382 C 
ATOM     23  O   LIG d   1      -5.075  89.329 115.430  0.00  0.00    -0.241 OA
ATOM     24  O   LIG d   1      -6.526  90.786 116.091  0.00  0.00    -0.241 OA
ENDBRANCH   3  22
TORSDOF 7
ENDMDL
MODEL 6
REMARK VINA RESULT:      -4.6      2.484      4.740
REMARK  7 active torsions:
REMARK  status: ('A' for Active; 'I' for Inactive)
REMARK    1  A    between atoms: C_2  and  C_3 
REMARK    2  A    between atoms: C_3  and  O_6 
REMARK    3  A    between atoms: C_3  and  C_4 
REMARK    4  A    between atoms: C_7  and  O_6 
REMARK    5  A    between atoms: C_9  and  C_10 
REMARK    6  A    between atoms: N_15  and  C_14 
REMARK    7  A    between atoms: N_20  and  C_19 
REMARK       I    between atoms: C_22  and  N_20 
ROOT
ATOM      1  C   LIG d   1      -3.291  92.757 118.766  0.00  0.00     0.161 C 
ATOM      2  C   LIG d   1      -4.522  93.270 119.210  0.00  0.00     0.016 C 
ATOM      3  C   LIG d   1      -4.658  94.526 119.845  0.00  0.00     0.038 C 
ATOM      4  C   LIG d   1      -3.587  95.426 119.944  0.00  0.00     0.028 C 
ATOM      5  C   LIG d   1      -2.223  94.746 119.963  0.00  0.00    -0.047 C 
ATOM      6  C   LIG d   1      -2.130  93.773 118.765  0.00  0.00     0.091 C 
ENDROOT
BRANCH   1   7
ATOM      7  O   LIG d   1      -3.449  92.175 117.457  0.00  0.00    -0.368 OA
BRANCH   7   8
ATOM      8  C   LIG d   1      -4.009  90.839 117.417  0.00  0.00     0.119 C 
BRANCH   8   9
ATOM      9  C   LIG d   1      -2.857  89.863 117.110  0.00  0.00     0.028 C 
ATOM     10  C   LIG d   1      -2.000  89.558 118.351  0.00  0.00     0.006 C 
ENDBRANCH   8   9
BRANCH   8  11
ATOM     11  C   LIG d   1      -4.993  90.683 116.254  0.00  0.00     0.028 C 
ATOM     12  C   LIG d   1      -6.174  91.663 116.338  0.00  0.00     0.006 C 
ENDBRANCH   8  11
ENDBRANCH   7   8
ENDBRANCH   1   7
BRANCH   6  13
ATOM     13  N   LIG d   1      -0.859  93.003 118.757  0.00  0.00    -0.311 N 
ATOM     14  C   LIG d   1      -0.025  92.976 117.719  0.00  0.00     0.210 C 
ATOM     15  C   LIG d   1       1.219  92.104 117.912  0.00  0.00     0.109 C 
ATOM     16  O   LIG d   1      -0.182  93.617 116.669  0.00  0.00    -0.276 OA
ATOM     17  H   LIG d   1      -0.638  92.479 119.581  0.00  0.00     0.149 HD
ENDBRANCH   6  13
BRANCH   5  18
ATOM     18  N   LIG d   1      -1.196  95.804 119.929  0.00  0.00     0.381 N 
ATOM     19  H   LIG d   1      -1.436  96.530 120.575  0.00  0.00    -0.090 HD
ATOM     20  H   LIG d   1      -1.167  96.200 119.006  0.00  0.00    -0.090 HD
ATOM     21  H   LIG d   1      -0.306  95.423 120.163  0.00  0.00    -0.090 HD
ENDBRANCH   5  18
BRANCH   3  22
ATOM     22  C   LIG d   1      -5.868  94.875 120.425  0.00  0.00     0.382 C 
ATOM     23  O   LIG d   1      -6.545  94.010 121.032  0.00  0.00    -0.241 OA
ATOM     24  O   LIG d   1      -6.312  96.033 120.312  0.00  0.00    -0.241 OA
ENDBRANCH   3  22
TORSDOF 7
ENDMDL
MODEL 7
REMARK VINA RESULT:      -4.6      2.388      4.216
REMARK  7 active torsions:
REMARK  status: ('A' for Active; 'I' for Inactive)
REMARK    1  A    between atoms: C_2  and  C_3 
REMARK    2  A    between atoms: C_3  and  O_6 
REMARK    3  A    between atoms: C_3  and  C_4 
REMARK    4  A    between atoms: C_7  and  O_6 
REMARK    5  A    between atoms: C_9  and  C_10 
REMARK    6  A    between atoms: N_15  and  C_14 
REMARK    7  A    between atoms: N_20  and  C_19 
REMARK       I    between atoms: C_22  and  N_20 
ROOT
ATOM      1  C   LIG d   1      -3.567  92.706 119.186  0.00  0.00     0.161 C 
ATOM      2  C   LIG d   1      -4.725  93.478 119.377  0.00  0.00     0.016 C 
ATOM      3  C   LIG d   1      -5.876  93.369 118.563  0.00  0.00     0.038 C 
ATOM      4  C   LIG d   1      -6.003  92.367 117.589  0.00  0.00     0.028 C 
ATOM      5  C   LIG d   1      -4.666  91.896 117.026  0.00  0.00    -0.047 C 
ATOM      6  C   LIG d   1      -3.728  91.531 118.199  0.00  0.00     0.091 C 
ENDROOT
BRANCH   1   7
ATOM      7  O   LIG d   1      -3.082  92.230 120.457  0.00  0.00    -0.368 OA
BRANCH   7   8
ATOM      8  C   LIG d   1      -1.822  92.787 120.908  0.00  0.00     0.119 C 
BRANCH   8   9
ATOM      9  C   LIG d   1      -1.358  93.801 119.845  0.00  0.00     0.028 C 
ATOM     10  C   LIG d   1       0.078  93.532 119.364  0.00  0.00     0.006 C 
ENDBRANCH   8   9
BRANCH   8  11
ATOM     11  C   LIG d   1      -0.726  91.718 120.955  0.00  0.00     0.028 C 
ATOM     12  C   LIG d   1      -1.283  90.301 121.162  0.00  0.00     0.006 C 
ENDBRANCH   8  11
ENDBRANCH   7   8
ENDBRANCH   1   7
BRANCH   6  13
ATOM     13  N   LIG d   1      -2.370  91.140 117.739  0.00  0.00    -0.311 N 
ATOM     14  C   LIG d   1      -2.010  89.879 117.504  0.00  0.00     0.210 C 
ATOM     15  C   LIG d   1      -0.557  89.695 117.055  0.00  0.00     0.109 C 
ATOM     16  O   LIG d   1      -2.765  88.900 117.593  0.00  0.00    -0.276 OA
ATOM     17  H   LIG d   1      -1.703  91.876 117.610  0.00  0.00     0.149 HD
ENDBRANCH   6  13
BRANCH   5  18
ATOM     18  N   LIG d   1      -4.937  90.759 116.127  0.00  0.00     0.381 N 
ATOM     19  H   LIG d   1      -5.863  90.414 116.285  0.00  0.00    -0.090 HD
ATOM     20  H   LIG d   1      -4.286  90.021 116.331  0.00  0.00    -0.090 HD
ATOM     21  H   LIG d   1      -4.839  91.044 115.177  0.00  0.00    -0.090 HD
ENDBRANCH   5  18
BRANCH   3  22
ATOM     22  C   LIG d   1      -6.900  94.295 118.692  0.00  0.00     0.382 C 
ATOM     23  O   LIG d   1      -6.645  95.460 119.080  0.00  0.00    -0.241 OA
ATOM     24  O   LIG d   1      -8.080  93.967 118.469  0.00  0.00    -0.241 OA
ENDBRANCH   3  22
TORSDOF 7
ENDMDL
MODEL 8
REMARK VINA RESULT:      -4.4      1.871      5.050
REMARK  7 active torsions:
REMARK  status: ('A' for Active; 'I' for Inactive)
REMARK    1  A    between atoms: C_2  and  C_3 
REMARK    2  A    between atoms: C_3  and  O_6 
REMARK    3  A    between atoms: C_3  and  C_4 
REMARK    4  A    between atoms: C_7  and  O_6 
REMARK    5  A    between atoms: C_9  and  C_10 
REMARK    6  A    between atoms: N_15  and  C_14 
REMARK    7  A    between atoms: N_20  and  C_19 
REMARK       I    between atoms: C_22  and  N_20 
ROOT
ATOM      1  C   LIG d   1      -2.086  93.330 118.065  0.00  0.00     0.161 C 
ATOM      2  C   LIG d   1      -1.177  93.961 118.930  0.00  0.00     0.016 C 
ATOM      3  C   LIG d   1      -1.463  94.250 120.284  0.00  0.00     0.038 C 
ATOM      4  C   LIG d   1      -2.630  93.789 120.910  0.00  0.00     0.028 C 
ATOM      5  C   LIG d   1      -3.796  93.589 119.947  0.00  0.00    -0.047 C 
ATOM      6  C   LIG d   1      -3.322  92.720 118.760  0.00  0.00     0.091 C 
ENDROOT
BRANCH   1   7
ATOM      7  O   LIG d   1      -1.404  92.328 117.285  0.00  0.00    -0.368 OA
BRANCH   7   8
ATOM      8  C   LIG d   1      -0.272  91.687 117.922  0.00  0.00     0.119 C 
BRANCH   8   9
ATOM      9  C   LIG d   1       0.837  91.545 116.860  0.00  0.00     0.028 C 
ATOM     10  C   LIG d   1       2.234  91.843 117.428  0.00  0.00     0.006 C 
ENDBRANCH   8   9
BRANCH   8  11
ATOM     11  C   LIG d   1      -0.609  90.255 118.349  0.00  0.00     0.028 C 
ATOM     12  C   LIG d   1      -0.899  90.135 119.853  0.00  0.00     0.006 C 
ENDBRANCH   8  11
ENDBRANCH   7   8
ENDBRANCH   1   7
BRANCH   6  13
ATOM     13  N   LIG d   1      -4.378  92.545 117.728  0.00  0.00    -0.311 N 
ATOM     14  C   LIG d   1      -4.572  91.408 117.063  0.00  0.00     0.210 C 
ATOM     15  C   LIG d   1      -5.701  91.448 116.029  0.00  0.00     0.109 C 
ATOM     16  O   LIG d   1      -3.938  90.359 117.255  0.00  0.00    -0.276 OA
ATOM     17  H   LIG d   1      -4.958  93.337 117.532  0.00  0.00     0.149 HD
ENDBRANCH   6  13
BRANCH   5  18
ATOM     18  N   LIG d   1      -4.902  92.977 120.707  0.00  0.00     0.381 N 
ATOM     19  H   LIG d   1      -4.536  92.471 121.489  0.00  0.00    -0.090 HD
ATOM     20  H   LIG d   1      -5.386  92.329 120.111  0.00  0.00    -0.090 HD
ATOM     21  H   LIG d   1      -5.530  93.682 121.022  0.00  0.00    -0.090 HD
ENDBRANCH   5  18
BRANCH   3  22
ATOM     22  C   LIG d   1      -0.593  95.044 121.015  0.00  0.00     0.382 C 
ATOM     23  O   LIG d   1      -0.926  96.211 121.334  0.00  0.00    -0.241 OA
ATOM     24  O   LIG d   1       0.539  94.624 121.323  0.00  0.00    -0.241 OA
ENDBRANCH   3  22
TORSDOF 7
ENDMDL
MODEL 9
REMARK VINA RESULT:      -4.4      2.291      4.525
REMARK  7 active torsions:
REMARK  status: ('A' for Active; 'I' for Inactive)
REMARK    1  A    between atoms: C_2  and  C_3 
REMARK    2  A    between atoms: C_3  and  O_6 
REMARK    3  A    between atoms: C_3  and  C_4 
REMARK    4  A    between atoms: C_7  and  O_6 
REMARK    5  A    between atoms: C_9  and  C_10 
REMARK    6  A    between atoms: N_15  and  C_14 
REMARK    7  A    between atoms: N_20  and  C_19 
REMARK       I    between atoms: C_22  and  N_20 
ROOT
ATOM      1  C   LIG d   1      -5.022  93.318 119.083  0.00  0.00     0.161 C 
ATOM      2  C   LIG d   1      -5.635  92.568 118.066  0.00  0.00     0.016 C 
ATOM      3  C   LIG d   1      -4.925  91.711 117.194  0.00  0.00     0.038 C 
ATOM      4  C   LIG d   1      -3.563  91.429 117.379  0.00  0.00     0.028 C 
ATOM      5  C   LIG d   1      -2.802  92.551 118.077  0.00  0.00    -0.047 C 
ATOM      6  C   LIG d   1      -3.554  92.938 119.371  0.00  0.00     0.091 C 
ENDROOT
BRANCH   1   7
ATOM      7  O   LIG d   1      -5.806  93.238 120.290  0.00  0.00    -0.368 OA
BRANCH   7   8
ATOM      8  C   LIG d   1      -6.475  94.457 120.697  0.00  0.00     0.119 C 
BRANCH   8   9
ATOM      9  C   LIG d   1      -6.256  95.499 119.583  0.00  0.00     0.028 C 
ATOM     10  C   LIG d   1      -7.566  95.885 118.875  0.00  0.00     0.006 C 
ENDBRANCH   8   9
BRANCH   8  11
ATOM     11  C   LIG d   1      -5.828  95.057 121.948  0.00  0.00     0.028 C 
ATOM     12  C   LIG d   1      -5.181  96.427 121.685  0.00  0.00     0.006 C 
ENDBRANCH   8  11
ENDBRANCH   7   8
ENDBRANCH   1   7
BRANCH   6  13
ATOM     13  N   LIG d   1      -2.922  94.086 120.072  0.00  0.00    -0.311 N 
ATOM     14  C   LIG d   1      -2.055  93.945 121.074  0.00  0.00     0.210 C 
ATOM     15  C   LIG d   1      -1.538  95.258 121.670  0.00  0.00     0.109 C 
ATOM     16  O   LIG d   1      -1.641  92.858 121.504  0.00  0.00    -0.276 OA
ATOM     17  H   LIG d   1      -3.178  95.004 119.767  0.00  0.00     0.149 HD
ENDBRANCH   6  13
BRANCH   5  18
ATOM     18  N   LIG d   1      -1.430  92.069 118.329  0.00  0.00     0.381 N 
ATOM     19  H   LIG d   1      -1.348  91.759 119.276  0.00  0.00    -0.090 HD
ATOM     20  H   LIG d   1      -0.788  92.829 118.188  0.00  0.00    -0.090 HD
ATOM     21  H   LIG d   1      -1.212  91.321 117.707  0.00  0.00    -0.090 HD
ENDBRANCH   5  18
BRANCH   3  22
ATOM     22  C   LIG d   1      -5.569  91.157 116.098  0.00  0.00     0.382 C 
ATOM     23  O   LIG d   1      -6.376  91.848 115.430  0.00  0.00    -0.241 OA
ATOM     24  O   LIG d   1      -5.388  89.963 115.796  0.00  0.00    -0.241 OA
ENDBRANCH   3  22
TORSDOF 7
ENDMDL
