MODEL 1
REMARK VINA RESULT:      -5.4      0.000      0.000
REMARK  7 active torsions:
REMARK  status: ('A' for Active; 'I' for Inactive)
REMARK    1  A    between atoms: C_2  and  C_3 
REMARK    2  A    between atoms: C_3  and  O_6 
REMARK    3  A    between atoms: C_3  and  C_4 
REMARK    4  A    between atoms: C_7  and  O_6 
REMARK    5  A    between atoms: C_9  and  C_10 
REMARK    6  A    between atoms: N_15  and  C_14 
REMARK    7  A    between atoms: N_20  and  C_19 
REMARK       I    between atoms: C_22  and  N_20 
ROOT
ATOM      1  C   LIG d   1      -5.866  92.981 118.476  0.00  0.00     0.161 C 
ATOM      2  C   LIG d   1      -6.753  92.175 117.743  0.00  0.00     0.016 C 
ATOM      3  C   LIG d   1      -6.334  91.090 116.939  0.00  0.00     0.038 C 
ATOM      4  C   LIG d   1      -5.005  90.641 116.932  0.00  0.00     0.028 C 
ATOM      5  C   LIG d   1      -3.995  91.735 117.261  0.00  0.00    -0.047 C 
ATOM      6  C   LIG d   1      -4.424  92.438 118.569  0.00  0.00     0.091 C 
ENDROOT
BRANCH   1   7
ATOM      7  O   LIG d   1      -6.398  93.220 119.794  0.00  0.00    -0.368 OA
BRANCH   7   8
ATOM      8  C   LIG d   1      -6.926  94.546 120.038  0.00  0.00     0.119 C 
BRANCH   8   9
ATOM      9  C   LIG d   1      -8.463  94.432 120.075  0.00  0.00     0.028 C 
ATOM     10  C   LIG d   1      -9.017  94.439 121.510  0.00  0.00     0.006 C 
ENDBRANCH   8   9
BRANCH   8  11
ATOM     11  C   LIG d   1      -6.618  95.492 118.873  0.00  0.00     0.028 C 
ATOM     12  C   LIG d   1      -5.714  96.665 119.282  0.00  0.00     0.006 C 
ENDBRANCH   8  11
ENDBRANCH   7   8
ENDBRANCH   1   7
BRANCH   6  13
ATOM     13  N   LIG d   1      -3.536  93.578 118.918  0.00  0.00    -0.311 N 
ATOM     14  C   LIG d   1      -2.488  93.467 119.733  0.00  0.00     0.210 C 
ATOM     15  C   LIG d   1      -1.718  94.769 119.975  0.00  0.00     0.109 C 
ATOM     16  O   LIG d   1      -2.105  92.409 120.252  0.00  0.00    -0.276 OA
ATOM     17  H   LIG d   1      -3.756  94.468 118.516  0.00  0.00     0.149 HD
ENDBRANCH   6  13
BRANCH   5  18
ATOM     18  N   LIG d   1      -2.666  91.101 117.355  0.00  0.00     0.381 N 
ATOM     19  H   LIG d   1      -2.676  90.398 118.067  0.00  0.00    -0.090 HD
ATOM     20  H   LIG d   1      -1.990  91.799 117.610  0.00  0.00    -0.090 HD
ATOM     21  H   LIG d   1      -2.420  90.694 116.480  0.00  0.00    -0.090 HD
ENDBRANCH   5  18
BRANCH   3  22
ATOM     22  C   LIG d   1      -7.244  90.467 116.098  0.00  0.00     0.382 C 
ATOM     23  O   LIG d   1      -8.273  91.079 115.724  0.00  0.00    -0.241 OA
ATOM     24  O   LIG d   1      -7.071  89.285 115.746  0.00  0.00    -0.241 OA
ENDBRANCH   3  22
TORSDOF 7
ENDMDL
MODEL 2
REMARK VINA RESULT:      -4.9      2.237      4.516
REMARK  7 active torsions:
REMARK  status: ('A' for Active; 'I' for Inactive)
REMARK    1  A    between atoms: C_2  and  C_3 
REMARK    2  A    between atoms: C_3  and  O_6 
REMARK    3  A    between atoms: C_3  and  C_4 
REMARK    4  A    between atoms: C_7  and  O_6 
REMARK    5  A    between atoms: C_9  and  C_10 
REMARK    6  A    between atoms: N_15  and  C_14 
REMARK    7  A    between atoms: N_20  and  C_19 
REMARK       I    between atoms: C_22  and  N_20 
ROOT
ATOM      1  C   LIG d   1      -3.981  91.272 118.155  0.00  0.00     0.161 C 
ATOM      2  C   LIG d   1      -4.895  90.773 117.213  0.00  0.00     0.016 C 
ATOM      3  C   LIG d   1      -6.201  91.288 117.047  0.00  0.00     0.038 C 
ATOM      4  C   LIG d   1      -6.632  92.445 117.714  0.00  0.00     0.028 C 
ATOM      5  C   LIG d   1      -5.920  92.679 119.042  0.00  0.00    -0.047 C 
ATOM      6  C   LIG d   1      -4.393  92.605 118.813  0.00  0.00     0.091 C 
ENDROOT
BRANCH   1   7
ATOM      7  O   LIG d   1      -2.676  91.393 117.553  0.00  0.00    -0.368 OA
BRANCH   7   8
ATOM      8  C   LIG d   1      -1.675  90.449 118.007  0.00  0.00     0.119 C 
BRANCH   8   9
ATOM      9  C   LIG d   1      -2.300  89.625 119.149  0.00  0.00     0.028 C 
ATOM     10  C   LIG d   1      -2.290  88.115 118.857  0.00  0.00     0.006 C 
ENDBRANCH   8   9
BRANCH   8  11
ATOM     11  C   LIG d   1      -0.476  91.168 118.634  0.00  0.00     0.028 C 
ATOM     12  C   LIG d   1      -0.092  92.453 117.884  0.00  0.00     0.006 C 
ENDBRANCH   8  11
ENDBRANCH   7   8
ENDBRANCH   1   7
BRANCH   6  13
ATOM     13  N   LIG d   1      -3.624  92.740 120.078  0.00  0.00    -0.311 N 
ATOM     14  C   LIG d   1      -2.718  93.693 120.286  0.00  0.00     0.210 C 
ATOM     15  C   LIG d   1      -2.025  93.639 121.652  0.00  0.00     0.109 C 
ATOM     16  O   LIG d   1      -2.445  94.598 119.483  0.00  0.00    -0.276 OA
ATOM     17  H   LIG d   1      -3.805  92.066 120.796  0.00  0.00     0.149 HD
ENDBRANCH   6  13
BRANCH   5  18
ATOM     18  N   LIG d   1      -6.365  93.986 119.561  0.00  0.00     0.381 N 
ATOM     19  H   LIG d   1      -5.777  94.711 119.201  0.00  0.00    -0.090 HD
ATOM     20  H   LIG d   1      -6.284  93.983 120.563  0.00  0.00    -0.090 HD
ATOM     21  H   LIG d   1      -7.311  94.154 119.298  0.00  0.00    -0.090 HD
ENDBRANCH   5  18
BRANCH   3  22
ATOM     22  C   LIG d   1      -7.106  90.620 116.236  0.00  0.00     0.382 C 
ATOM     23  O   LIG d   1      -6.880  89.436 115.887  0.00  0.00    -0.241 OA
ATOM     24  O   LIG d   1      -8.123  91.201 115.812  0.00  0.00    -0.241 OA
ENDBRANCH   3  22
TORSDOF 7
ENDMDL
MODEL 3
REMARK VINA RESULT:      -4.8      2.239      4.464
REMARK  7 active torsions:
REMARK  status: ('A' for Active; 'I' for Inactive)
REMARK    1  A    between atoms: C_2  and  C_3 
REMARK    2  A    between atoms: C_3  and  O_6 
REMARK    3  A    between atoms: C_3  and  C_4 
REMARK    4  A    between atoms: C_7  and  O_6 
REMARK    5  A    between atoms: C_9  and  C_10 
REMARK    6  A    between atoms: N_15  and  C_14 
REMARK    7  A    between atoms: N_20  and  C_19 
REMARK       I    between atoms: C_22  and  N_20 
ROOT
ATOM      1  C   LIG d   1      -4.964  93.310 119.541  0.00  0.00     0.161 C 
ATOM      2  C   LIG d   1      -5.216  92.225 118.684  0.00  0.00     0.016 C 
ATOM      3  C   LIG d   1      -6.313  92.176 117.793  0.00  0.00     0.038 C 
ATOM      4  C   LIG d   1      -7.152  93.281 117.589  0.00  0.00     0.028 C 
ATOM      5  C   LIG d   1      -7.237  94.209 118.796  0.00  0.00    -0.047 C 
ATOM      6  C   LIG d   1      -5.805  94.571 119.252  0.00  0.00     0.091 C 
ENDROOT
BRANCH   1   7
ATOM      7  O   LIG d   1      -3.559  93.629 119.523  0.00  0.00    -0.368 OA
BRANCH   7   8
ATOM      8  C   LIG d   1      -2.677  92.599 119.014  0.00  0.00     0.119 C 
BRANCH   8   9
ATOM      9  C   LIG d   1      -1.831  92.088 120.196  0.00  0.00     0.028 C 
ATOM     10  C   LIG d   1      -2.129  90.619 120.539  0.00  0.00     0.006 C 
ENDBRANCH   8   9
BRANCH   8  11
ATOM     11  C   LIG d   1      -1.670  93.172 118.013  0.00  0.00     0.028 C 
ATOM     12  C   LIG d   1      -1.198  94.587 118.385  0.00  0.00     0.006 C 
ENDBRANCH   8  11
ENDBRANCH   7   8
ENDBRANCH   1   7
BRANCH   6  13
ATOM     13  N   LIG d   1      -5.796  95.408 120.480  0.00  0.00    -0.311 N 
ATOM     14  C   LIG d   1      -5.725  96.738 120.459  0.00  0.00     0.210 C 
ATOM     15  C   LIG d   1      -5.708  97.406 121.838  0.00  0.00     0.109 C 
ATOM     16  O   LIG d   1      -5.706  97.430 119.430  0.00  0.00    -0.276 OA
ATOM     17  H   LIG d   1      -5.840  94.930 121.358  0.00  0.00     0.149 HD
ENDBRANCH   6  13
BRANCH   5  18
ATOM     18  N   LIG d   1      -8.032  95.386 118.398  0.00  0.00     0.381 N 
ATOM     19  H   LIG d   1      -8.975  95.281 118.715  0.00  0.00    -0.090 HD
ATOM     20  H   LIG d   1      -8.042  95.448 117.395  0.00  0.00    -0.090 HD
ATOM     21  H   LIG d   1      -7.633  96.213 118.785  0.00  0.00    -0.090 HD
ENDBRANCH   5  18
BRANCH   3  22
ATOM     22  C   LIG d   1      -6.603  90.996 117.125  0.00  0.00     0.382 C 
ATOM     23  O   LIG d   1      -7.793  90.620 117.003  0.00  0.00    -0.241 OA
ATOM     24  O   LIG d   1      -5.685  90.280 116.680  0.00  0.00    -0.241 OA
ENDBRANCH   3  22
TORSDOF 7
ENDMDL
MODEL 4
REMARK VINA RESULT:      -4.6      2.525      4.673
REMARK  7 active torsions:
REMARK  status: ('A' for Active; 'I' for Inactive)
REMARK    1  A    between atoms: C_2  and  C_3 
REMARK    2  A    between atoms: C_3  and  O_6 
REMARK    3  A    between atoms: C_3  and  C_4 
REMARK    4  A    between atoms: C_7  and  O_6 
REMARK    5  A    between atoms: C_9  and  C_10 
REMARK    6  A    between atoms: N_15  and  C_14 
REMARK    7  A    between atoms: N_20  and  C_19 
REMARK       I    between atoms: C_22  and  N_20 
ROOT
ATOM      1  C   LIG d   1      -5.643  93.403 120.222  0.00  0.00     0.161 C 
ATOM      2  C   LIG d   1      -5.137  92.578 119.204  0.00  0.00     0.016 C 
ATOM      3  C   LIG d   1      -5.740  92.455 117.931  0.00  0.00     0.038 C 
ATOM      4  C   LIG d   1      -6.812  93.270 117.536  0.00  0.00     0.028 C 
ATOM      5  C   LIG d   1      -7.667  93.752 118.703  0.00  0.00    -0.047 C 
ATOM      6  C   LIG d   1      -6.747  94.383 119.773  0.00  0.00     0.091 C 
ENDROOT
BRANCH   1   7
ATOM      7  O   LIG d   1      -4.562  94.120 120.852  0.00  0.00    -0.368 OA
BRANCH   7   8
ATOM      8  C   LIG d   1      -3.776  94.976 119.987  0.00  0.00     0.119 C 
BRANCH   8   9
ATOM      9  C   LIG d   1      -2.295  94.598 120.184  0.00  0.00     0.028 C 
ATOM     10  C   LIG d   1      -1.425  94.988 118.978  0.00  0.00     0.006 C 
ENDBRANCH   8   9
BRANCH   8  11
ATOM     11  C   LIG d   1      -3.880  96.444 120.412  0.00  0.00     0.028 C 
ATOM     12  C   LIG d   1      -4.648  97.305 119.397  0.00  0.00     0.006 C 
ENDBRANCH   8  11
ENDBRANCH   7   8
ENDBRANCH   1   7
BRANCH   6  13
ATOM     13  N   LIG d   1      -7.494  94.805 120.986  0.00  0.00    -0.311 N 
ATOM     14  C   LIG d   1      -8.070  95.999 121.113  0.00  0.00     0.210 C 
ATOM     15  C   LIG d   1      -8.773  96.238 122.453  0.00  0.00     0.109 C 
ATOM     16  O   LIG d   1      -8.093  96.871 120.232  0.00  0.00    -0.276 OA
ATOM     17  H   LIG d   1      -7.552  94.147 121.738  0.00  0.00     0.149 HD
ENDBRANCH   6  13
BRANCH   5  18
ATOM     18  N   LIG d   1      -8.661  94.700 118.165  0.00  0.00     0.381 N 
ATOM     19  H   LIG d   1      -8.495  95.613 118.537  0.00  0.00    -0.090 HD
ATOM     20  H   LIG d   1      -9.579  94.405 118.450  0.00  0.00    -0.090 HD
ATOM     21  H   LIG d   1      -8.606  94.723 117.170  0.00  0.00    -0.090 HD
ENDBRANCH   5  18
BRANCH   3  22
ATOM     22  C   LIG d   1      -5.295  91.480 117.051  0.00  0.00     0.382 C 
ATOM     23  O   LIG d   1      -4.792  90.419 117.493  0.00  0.00    -0.241 OA
ATOM     24  O   LIG d   1      -5.349  91.667 115.821  0.00  0.00    -0.241 OA
ENDBRANCH   3  22
TORSDOF 7
ENDMDL
MODEL 5
REMARK VINA RESULT:      -4.5      1.695      2.354
REMARK  7 active torsions:
REMARK  status: ('A' for Active; 'I' for Inactive)
REMARK    1  A    between atoms: C_2  and  C_3 
REMARK    2  A    between atoms: C_3  and  O_6 
REMARK    3  A    between atoms: C_3  and  C_4 
REMARK    4  A    between atoms: C_7  and  O_6 
REMARK    5  A    between atoms: C_9  and  C_10 
REMARK    6  A    between atoms: N_15  and  C_14 
REMARK    7  A    between atoms: N_20  and  C_19 
REMARK       I    between atoms: C_22  and  N_20 
ROOT
ATOM      1  C   LIG d   1      -4.965  93.476 118.954  0.00  0.00     0.161 C 
ATOM      2  C   LIG d   1      -6.118  92.869 118.428  0.00  0.00     0.016 C 
ATOM      3  C   LIG d   1      -6.085  91.720 117.604  0.00  0.00     0.038 C 
ATOM      4  C   LIG d   1      -4.899  91.006 117.374  0.00  0.00     0.028 C 
ATOM      5  C   LIG d   1      -3.645  91.869 117.469  0.00  0.00    -0.047 C 
ATOM      6  C   LIG d   1      -3.672  92.647 118.805  0.00  0.00     0.091 C 
ENDROOT
BRANCH   1   7
ATOM      7  O   LIG d   1      -5.183  93.820 120.337  0.00  0.00    -0.368 OA
BRANCH   7   8
ATOM      8  C   LIG d   1      -5.157  92.720 121.279  0.00  0.00     0.119 C 
BRANCH   8   9
ATOM      9  C   LIG d   1      -6.385  92.869 122.199  0.00  0.00     0.028 C 
ATOM     10  C   LIG d   1      -7.266  94.069 121.811  0.00  0.00     0.006 C 
ENDBRANCH   8   9
BRANCH   8  11
ATOM     11  C   LIG d   1      -3.942  92.810 122.207  0.00  0.00     0.028 C 
ATOM     12  C   LIG d   1      -3.365  91.432 122.569  0.00  0.00     0.006 C 
ENDBRANCH   8  11
ENDBRANCH   7   8
ENDBRANCH   1   7
BRANCH   6  13
ATOM     13  N   LIG d   1      -2.523  93.579 118.941  0.00  0.00    -0.311 N 
ATOM     14  C   LIG d   1      -1.372  93.244 119.521  0.00  0.00     0.210 C 
ATOM     15  C   LIG d   1      -0.325  94.361 119.575  0.00  0.00     0.109 C 
ATOM     16  O   LIG d   1      -1.107  92.118 119.968  0.00  0.00    -0.276 OA
ATOM     17  H   LIG d   1      -2.640  94.505 118.578  0.00  0.00     0.149 HD
ENDBRANCH   6  13
BRANCH   5  18
ATOM     18  N   LIG d   1      -2.478  90.975 117.345  0.00  0.00     0.381 N 
ATOM     19  H   LIG d   1      -2.191  90.924 116.388  0.00  0.00    -0.090 HD
ATOM     20  H   LIG d   1      -2.742  90.053 117.644  0.00  0.00    -0.090 HD
ATOM     21  H   LIG d   1      -1.728  91.312 117.907  0.00  0.00    -0.090 HD
ENDBRANCH   5  18
BRANCH   3  22
ATOM     22  C   LIG d   1      -7.242  91.296 116.969  0.00  0.00     0.382 C 
ATOM     23  O   LIG d   1      -7.799  92.036 116.122  0.00  0.00    -0.241 OA
ATOM     24  O   LIG d   1      -7.761  90.203 117.264  0.00  0.00    -0.241 OA
ENDBRANCH   3  22
TORSDOF 7
ENDMDL
MODEL 6
REMARK VINA RESULT:      -4.5      2.527      4.583
REMARK  7 active torsions:
REMARK  status: ('A' for Active; 'I' for Inactive)
REMARK    1  A    between atoms: C_2  and  C_3 
REMARK    2  A    between atoms: C_3  and  O_6 
REMARK    3  A    between atoms: C_3  and  C_4 
REMARK    4  A    between atoms: C_7  and  O_6 
REMARK    5  A    between atoms: C_9  and  C_10 
REMARK    6  A    between atoms: N_15  and  C_14 
REMARK    7  A    between atoms: N_20  and  C_19 
REMARK       I    between atoms: C_22  and  N_20 
ROOT
ATOM      1  C   LIG d   1      -5.035  92.809 120.299  0.00  0.00     0.161 C 
ATOM      2  C   LIG d   1      -3.992  92.060 119.730  0.00  0.00     0.016 C 
ATOM      3  C   LIG d   1      -4.055  91.495 118.436  0.00  0.00     0.038 C 
ATOM      4  C   LIG d   1      -5.115  91.771 117.558  0.00  0.00     0.028 C 
ATOM      5  C   LIG d   1      -6.421  92.105 118.271  0.00  0.00    -0.047 C 
ATOM      6  C   LIG d   1      -6.153  93.213 119.315  0.00  0.00     0.091 C 
ENDROOT
BRANCH   1   7
ATOM      7  O   LIG d   1      -4.498  93.975 120.955  0.00  0.00    -0.368 OA
BRANCH   7   8
ATOM      8  C   LIG d   1      -4.066  95.052 120.087  0.00  0.00     0.119 C 
BRANCH   8   9
ATOM      9  C   LIG d   1      -2.566  95.286 120.351  0.00  0.00     0.028 C 
ATOM     10  C   LIG d   1      -1.696  94.955 119.127  0.00  0.00     0.006 C 
ENDBRANCH   8   9
BRANCH   8  11
ATOM     11  C   LIG d   1      -4.753  96.371 120.451  0.00  0.00     0.028 C 
ATOM     12  C   LIG d   1      -5.299  97.118 119.224  0.00  0.00     0.006 C 
ENDBRANCH   8  11
ENDBRANCH   7   8
ENDBRANCH   1   7
BRANCH   6  13
ATOM     13  N   LIG d   1      -7.361  93.541 120.117  0.00  0.00    -0.311 N 
ATOM     14  C   LIG d   1      -8.224  94.499 119.783  0.00  0.00     0.210 C 
ATOM     15  C   LIG d   1      -9.390  94.686 120.758  0.00  0.00     0.109 C 
ATOM     16  O   LIG d   1      -8.151  95.190 118.756  0.00  0.00    -0.276 OA
ATOM     17  H   LIG d   1      -7.514  93.008 120.950  0.00  0.00     0.149 HD
ENDBRANCH   6  13
BRANCH   5  18
ATOM     18  N   LIG d   1      -7.400  92.505 117.243  0.00  0.00     0.381 N 
ATOM     19  H   LIG d   1      -7.041  93.273 116.713  0.00  0.00    -0.090 HD
ATOM     20  H   LIG d   1      -8.245  92.803 117.697  0.00  0.00    -0.090 HD
ATOM     21  H   LIG d   1      -7.592  91.736 116.639  0.00  0.00    -0.090 HD
ENDBRANCH   5  18
BRANCH   3  22
ATOM     22  C   LIG d   1      -3.070  90.612 118.022  0.00  0.00     0.382 C 
ATOM     23  O   LIG d   1      -3.275  89.375 118.072  0.00  0.00    -0.241 OA
ATOM     24  O   LIG d   1      -1.962  91.035 117.640  0.00  0.00    -0.241 OA
ENDBRANCH   3  22
TORSDOF 7
ENDMDL
MODEL 7
REMARK VINA RESULT:      -4.5      3.861      7.760
REMARK  7 active torsions:
REMARK  status: ('A' for Active; 'I' for Inactive)
REMARK    1  A    between atoms: C_2  and  C_3 
REMARK    2  A    between atoms: C_3  and  O_6 
REMARK    3  A    between atoms: C_3  and  C_4 
REMARK    4  A    between atoms: C_7  and  O_6 
REMARK    5  A    between atoms: C_9  and  C_10 
REMARK    6  A    between atoms: N_15  and  C_14 
REMARK    7  A    between atoms: N_20  and  C_19 
REMARK       I    between atoms: C_22  and  N_20 
ROOT
ATOM      1  C   LIG d   1      -0.108  91.350 117.720  0.00  0.00     0.161 C 
ATOM      2  C   LIG d   1       1.179  91.841 117.994  0.00  0.00     0.016 C 
ATOM      3  C   LIG d   1       1.437  93.177 118.378  0.00  0.00     0.038 C 
ATOM      4  C   LIG d   1       0.402  94.080 118.662  0.00  0.00     0.028 C 
ATOM      5  C   LIG d   1      -0.890  93.775 117.912  0.00  0.00    -0.047 C 
ATOM      6  C   LIG d   1      -1.260  92.290 118.132  0.00  0.00     0.091 C 
ENDROOT
BRANCH   1   7
ATOM      7  O   LIG d   1      -0.276  90.054 118.328  0.00  0.00    -0.368 OA
BRANCH   7   8
ATOM      8  C   LIG d   1      -0.702  90.051 119.713  0.00  0.00     0.119 C 
BRANCH   8   9
ATOM      9  C   LIG d   1       0.391  89.335 120.531  0.00  0.00     0.028 C 
ATOM     10  C   LIG d   1       1.282  88.435 119.659  0.00  0.00     0.006 C 
ENDBRANCH   8   9
BRANCH   8  11
ATOM     11  C   LIG d   1      -1.968  89.211 119.905  0.00  0.00     0.028 C 
ATOM     12  C   LIG d   1      -2.372  88.443 118.637  0.00  0.00     0.006 C 
ENDBRANCH   8  11
ENDBRANCH   7   8
ENDBRANCH   1   7
BRANCH   6  13
ATOM     13  N   LIG d   1      -2.467  91.887 117.364  0.00  0.00    -0.311 N 
ATOM     14  C   LIG d   1      -3.693  91.867 117.883  0.00  0.00     0.210 C 
ATOM     15  C   LIG d   1      -4.793  91.400 116.925  0.00  0.00     0.109 C 
ATOM     16  O   LIG d   1      -3.979  92.222 119.036  0.00  0.00    -0.276 OA
ATOM     17  H   LIG d   1      -2.330  91.613 116.411  0.00  0.00     0.149 HD
ENDBRANCH   6  13
BRANCH   5  18
ATOM     18  N   LIG d   1      -1.922  94.707 118.405  0.00  0.00     0.381 N 
ATOM     19  H   LIG d   1      -2.454  95.062 117.636  0.00  0.00    -0.090 HD
ATOM     20  H   LIG d   1      -1.471  95.481 118.860  0.00  0.00    -0.090 HD
ATOM     21  H   LIG d   1      -2.525  94.240 119.047  0.00  0.00    -0.090 HD
ENDBRANCH   5  18
BRANCH   3  22
ATOM     22  C   LIG d   1       2.745  93.634 118.442  0.00  0.00     0.382 C 
ATOM     23  O   LIG d   1       3.503  93.506 117.451  0.00  0.00    -0.241 OA
ATOM     24  O   LIG d   1       3.190  94.131 119.494  0.00  0.00    -0.241 OA
ENDBRANCH   3  22
TORSDOF 7
ENDMDL
MODEL 8
REMARK VINA RESULT:      -4.3      2.541      5.163
REMARK  7 active torsions:
REMARK  status: ('A' for Active; 'I' for Inactive)
REMARK    1  A    between atoms: C_2  and  C_3 
REMARK    2  A    between atoms: C_3  and  O_6 
REMARK    3  A    between atoms: C_3  and  C_4 
REMARK    4  A    between atoms: C_7  and  O_6 
REMARK    5  A    between atoms: C_9  and  C_10 
REMARK    6  A    between atoms: N_15  and  C_14 
REMARK    7  A    between atoms: N_20  and  C_19 
REMARK       I    between atoms: C_22  and  N_20 
ROOT
ATOM      1  C   LIG d   1      -3.394  91.225 118.755  0.00  0.00     0.161 C 
ATOM      2  C   LIG d   1      -3.800  92.347 119.496  0.00  0.00     0.016 C 
ATOM      3  C   LIG d   1      -3.092  93.571 119.507  0.00  0.00     0.038 C 
ATOM      4  C   LIG d   1      -2.005  93.805 118.652  0.00  0.00     0.028 C 
ATOM      5  C   LIG d   1      -1.257  92.535 118.261  0.00  0.00    -0.047 C 
ATOM      6  C   LIG d   1      -2.273  91.498 117.731  0.00  0.00     0.091 C 
ENDROOT
BRANCH   1   7
ATOM      7  O   LIG d   1      -4.534  90.631 118.104  0.00  0.00    -0.368 OA
BRANCH   7   8
ATOM      8  C   LIG d   1      -5.204  91.452 117.117  0.00  0.00     0.119 C 
BRANCH   8   9
ATOM      9  C   LIG d   1      -6.607  91.780 117.662  0.00  0.00     0.028 C 
ATOM     10  C   LIG d   1      -6.883  93.293 117.703  0.00  0.00     0.006 C 
ENDBRANCH   8   9
BRANCH   8  11
ATOM     11  C   LIG d   1      -5.445  90.677 115.818  0.00  0.00     0.028 C 
ATOM     12  C   LIG d   1      -6.861  90.086 115.730  0.00  0.00     0.006 C 
ENDBRANCH   8  11
ENDBRANCH   7   8
ENDBRANCH   1   7
BRANCH   6  13
ATOM     13  N   LIG d   1      -1.635  90.196 117.405  0.00  0.00    -0.311 N 
ATOM     14  C   LIG d   1      -0.989  89.451 118.300  0.00  0.00     0.210 C 
ATOM     15  C   LIG d   1      -0.388  88.154 117.750  0.00  0.00     0.109 C 
ATOM     16  O   LIG d   1      -0.883  89.726 119.505  0.00  0.00    -0.276 OA
ATOM     17  H   LIG d   1      -1.700  89.881 116.456  0.00  0.00     0.149 HD
ENDBRANCH   6  13
BRANCH   5  18
ATOM     18  N   LIG d   1      -0.237  92.908 117.262  0.00  0.00     0.381 N 
ATOM     19  H   LIG d   1      -0.121  92.165 116.603  0.00  0.00    -0.090 HD
ATOM     20  H   LIG d   1       0.639  93.054 117.731  0.00  0.00    -0.090 HD
ATOM     21  H   LIG d   1      -0.512  93.741 116.789  0.00  0.00    -0.090 HD
ENDBRANCH   5  18
BRANCH   3  22
ATOM     22  C   LIG d   1      -3.447  94.562 120.409  0.00  0.00     0.382 C 
ATOM     23  O   LIG d   1      -4.467  95.263 120.201  0.00  0.00    -0.241 OA
ATOM     24  O   LIG d   1      -2.735  94.795 121.404  0.00  0.00    -0.241 OA
ENDBRANCH   3  22
TORSDOF 7
ENDMDL
MODEL 9
REMARK VINA RESULT:      -4.3      1.868      2.415
REMARK  7 active torsions:
REMARK  status: ('A' for Active; 'I' for Inactive)
REMARK    1  A    between atoms: C_2  and  C_3 
REMARK    2  A    between atoms: C_3  and  O_6 
REMARK    3  A    between atoms: C_3  and  C_4 
REMARK    4  A    between atoms: C_7  and  O_6 
REMARK    5  A    between atoms: C_9  and  C_10 
REMARK    6  A    between atoms: N_15  and  C_14 
REMARK    7  A    between atoms: N_20  and  C_19 
REMARK       I    between atoms: C_22  and  N_20 
ROOT
ATOM      1  C   LIG d   1      -6.475  94.598 118.945  0.00  0.00     0.161 C 
ATOM      2  C   LIG d   1      -7.046  93.638 118.094  0.00  0.00     0.016 C 
ATOM      3  C   LIG d   1      -6.480  92.362 117.869  0.00  0.00     0.038 C 
ATOM      4  C   LIG d   1      -5.377  91.900 118.604  0.00  0.00     0.028 C 
ATOM      5  C   LIG d   1      -4.471  93.020 119.104  0.00  0.00    -0.047 C 
ATOM      6  C   LIG d   1      -5.333  94.072 119.839  0.00  0.00     0.091 C 
ENDROOT
BRANCH   1   7
ATOM      7  O   LIG d   1      -7.501  95.209 119.751  0.00  0.00    -0.368 OA
BRANCH   7   8
ATOM      8  C   LIG d   1      -7.951  94.445 120.897  0.00  0.00     0.119 C 
BRANCH   8   9
ATOM      9  C   LIG d   1      -9.467  94.217 120.736  0.00  0.00     0.028 C 
ATOM     10  C   LIG d   1     -10.173  93.993 122.084  0.00  0.00     0.006 C 
ENDBRANCH   8   9
BRANCH   8  11
ATOM     11  C   LIG d   1      -7.796  95.243 122.195  0.00  0.00     0.028 C 
ATOM     12  C   LIG d   1      -7.458  96.722 121.948  0.00  0.00     0.006 C 
ENDBRANCH   8  11
ENDBRANCH   7   8
ENDBRANCH   1   7
BRANCH   6  13
ATOM     13  N   LIG d   1      -4.536  95.244 120.288  0.00  0.00    -0.311 N 
ATOM     14  C   LIG d   1      -4.043  95.368 121.519  0.00  0.00     0.210 C 
ATOM     15  C   LIG d   1      -3.269  96.664 121.778  0.00  0.00     0.109 C 
ATOM     16  O   LIG d   1      -4.147  94.513 122.411  0.00  0.00    -0.276 OA
ATOM     17  H   LIG d   1      -4.377  95.971 119.618  0.00  0.00     0.149 HD
ENDBRANCH   6  13
BRANCH   5  18
ATOM     18  N   LIG d   1      -3.442  92.409 119.967  0.00  0.00     0.381 N 
ATOM     19  H   LIG d   1      -2.812  93.114 120.293  0.00  0.00    -0.090 HD
ATOM     20  H   LIG d   1      -2.919  91.743 119.427  0.00  0.00    -0.090 HD
ATOM     21  H   LIG d   1      -3.873  91.955 120.742  0.00  0.00    -0.090 HD
ENDBRANCH   5  18
BRANCH   3  22
ATOM     22  C   LIG d   1      -6.995  91.547 116.872  0.00  0.00     0.382 C 
ATOM     23  O   LIG d   1      -6.588  90.366 116.756  0.00  0.00    -0.241 OA
ATOM     24  O   LIG d   1      -7.828  91.992 116.061  0.00  0.00    -0.241 OA
ENDBRANCH   3  22
TORSDOF 7
ENDMDL
