MODEL 1
REMARK VINA RESULT:      -5.0      0.000      0.000
REMARK  7 active torsions:
REMARK  status: ('A' for Active; 'I' for Inactive)
REMARK    1  A    between atoms: C_2  and  C_3 
REMARK    2  A    between atoms: C_3  and  O_6 
REMARK    3  A    between atoms: C_3  and  C_4 
REMARK    4  A    between atoms: C_7  and  O_6 
REMARK    5  A    between atoms: C_9  and  C_10 
REMARK    6  A    between atoms: N_15  and  C_14 
REMARK    7  A    between atoms: N_20  and  C_19 
REMARK       I    between atoms: C_22  and  N_20 
ROOT
ATOM      1  C   LIG d   1      -5.275  91.978 119.042  0.00  0.00     0.161 C 
ATOM      2  C   LIG d   1      -5.401  91.048 117.997  0.00  0.00     0.016 C 
ATOM      3  C   LIG d   1      -6.253  91.238 116.884  0.00  0.00     0.038 C 
ATOM      4  C   LIG d   1      -6.927  92.449 116.665  0.00  0.00     0.028 C 
ATOM      5  C   LIG d   1      -7.224  93.217 117.949  0.00  0.00    -0.047 C 
ATOM      6  C   LIG d   1      -5.919  93.353 118.766  0.00  0.00     0.091 C 
ENDROOT
BRANCH   1   7
ATOM      7  O   LIG d   1      -3.886  92.136 119.391  0.00  0.00    -0.368 OA
BRANCH   7   8
ATOM      8  C   LIG d   1      -2.937  92.009 118.303  0.00  0.00     0.119 C 
BRANCH   8   9
ATOM      9  C   LIG d   1      -1.818  91.060 118.774  0.00  0.00     0.028 C 
ATOM     10  C   LIG d   1      -1.948  90.690 120.261  0.00  0.00     0.006 C 
ENDBRANCH   8   9
BRANCH   8  11
ATOM     11  C   LIG d   1      -2.243  93.342 118.010  0.00  0.00     0.028 C 
ATOM     12  C   LIG d   1      -2.358  94.341 119.172  0.00  0.00     0.006 C 
ENDBRANCH   8  11
ENDBRANCH   7   8
ENDBRANCH   1   7
BRANCH   6  13
ATOM     13  N   LIG d   1      -6.137  94.019 120.076  0.00  0.00    -0.311 N 
ATOM     14  C   LIG d   1      -5.963  95.325 120.272  0.00  0.00     0.210 C 
ATOM     15  C   LIG d   1      -6.222  95.804 121.704  0.00  0.00     0.109 C 
ATOM     16  O   LIG d   1      -5.650  96.137 119.389  0.00  0.00    -0.276 OA
ATOM     17  H   LIG d   1      -6.423  93.439 120.841  0.00  0.00     0.149 HD
ENDBRANCH   6  13
BRANCH   5  18
ATOM     18  N   LIG d   1      -7.804  94.518 117.565  0.00  0.00     0.381 N 
ATOM     19  H   LIG d   1      -7.072  95.160 117.334  0.00  0.00    -0.090 HD
ATOM     20  H   LIG d   1      -8.314  94.890 118.346  0.00  0.00    -0.090 HD
ATOM     21  H   LIG d   1      -8.413  94.404 116.785  0.00  0.00    -0.090 HD
ENDBRANCH   5  18
BRANCH   3  22
ATOM     22  C   LIG d   1      -6.467  90.195 115.997  0.00  0.00     0.382 C 
ATOM     23  O   LIG d   1      -7.637  89.816 115.745  0.00  0.00    -0.241 OA
ATOM     24  O   LIG d   1      -5.504  89.598 115.478  0.00  0.00    -0.241 OA
ENDBRANCH   3  22
TORSDOF 7
ENDMDL
MODEL 2
REMARK VINA RESULT:      -5.0      2.383      4.703
REMARK  7 active torsions:
REMARK  status: ('A' for Active; 'I' for Inactive)
REMARK    1  A    between atoms: C_2  and  C_3 
REMARK    2  A    between atoms: C_3  and  O_6 
REMARK    3  A    between atoms: C_3  and  C_4 
REMARK    4  A    between atoms: C_7  and  O_6 
REMARK    5  A    between atoms: C_9  and  C_10 
REMARK    6  A    between atoms: N_15  and  C_14 
REMARK    7  A    between atoms: N_20  and  C_19 
REMARK       I    between atoms: C_22  and  N_20 
ROOT
ATOM      1  C   LIG d   1      -6.380  93.063 119.774  0.00  0.00     0.161 C 
ATOM      2  C   LIG d   1      -7.656  93.593 119.520  0.00  0.00     0.016 C 
ATOM      3  C   LIG d   1      -7.883  94.949 119.188  0.00  0.00     0.038 C 
ATOM      4  C   LIG d   1      -6.827  95.838 118.939  0.00  0.00     0.028 C 
ATOM      5  C   LIG d   1      -5.542  95.475 119.676  0.00  0.00    -0.047 C 
ATOM      6  C   LIG d   1      -5.207  93.991 119.398  0.00  0.00     0.091 C 
ENDROOT
BRANCH   1   7
ATOM      7  O   LIG d   1      -6.241  91.788 119.115  0.00  0.00    -0.368 OA
BRANCH   7   8
ATOM      8  C   LIG d   1      -5.758  91.825 117.750  0.00  0.00     0.119 C 
BRANCH   8   9
ATOM      9  C   LIG d   1      -6.916  91.380 116.837  0.00  0.00     0.028 C 
ATOM     10  C   LIG d   1      -7.334  92.477 115.842  0.00  0.00     0.006 C 
ENDBRANCH   8   9
BRANCH   8  11
ATOM     11  C   LIG d   1      -4.645  90.797 117.525  0.00  0.00     0.028 C 
ATOM     12  C   LIG d   1      -4.196  90.110 118.824  0.00  0.00     0.006 C 
ENDBRANCH   8  11
ENDBRANCH   7   8
ENDBRANCH   1   7
BRANCH   6  13
ATOM     13  N   LIG d   1      -4.010  93.531 120.149  0.00  0.00    -0.311 N 
ATOM     14  C   LIG d   1      -2.789  93.473 119.619  0.00  0.00     0.210 C 
ATOM     15  C   LIG d   1      -1.700  92.950 120.560  0.00  0.00     0.109 C 
ATOM     16  O   LIG d   1      -2.499  93.837 118.469  0.00  0.00    -0.276 OA
ATOM     17  H   LIG d   1      -4.149  93.246 121.099  0.00  0.00     0.149 HD
ENDBRANCH   6  13
BRANCH   5  18
ATOM     18  N   LIG d   1      -4.489  96.401 119.219  0.00  0.00     0.381 N 
ATOM     19  H   LIG d   1      -4.205  96.991 119.975  0.00  0.00    -0.090 HD
ATOM     20  H   LIG d   1      -4.861  96.981 118.488  0.00  0.00    -0.090 HD
ATOM     21  H   LIG d   1      -3.706  95.887 118.878  0.00  0.00    -0.090 HD
ENDBRANCH   5  18
BRANCH   3  22
ATOM     22  C   LIG d   1      -9.180  95.437 119.142  0.00  0.00     0.382 C 
ATOM     23  O   LIG d   1     -10.143  94.686 119.429  0.00  0.00    -0.241 OA
ATOM     24  O   LIG d   1      -9.402  96.607 118.775  0.00  0.00    -0.241 OA
ENDBRANCH   3  22
TORSDOF 7
ENDMDL
MODEL 3
REMARK VINA RESULT:      -4.9      2.249      4.651
REMARK  7 active torsions:
REMARK  status: ('A' for Active; 'I' for Inactive)
REMARK    1  A    between atoms: C_2  and  C_3 
REMARK    2  A    between atoms: C_3  and  O_6 
REMARK    3  A    between atoms: C_3  and  C_4 
REMARK    4  A    between atoms: C_7  and  O_6 
REMARK    5  A    between atoms: C_9  and  C_10 
REMARK    6  A    between atoms: N_15  and  C_14 
REMARK    7  A    between atoms: N_20  and  C_19 
REMARK       I    between atoms: C_22  and  N_20 
ROOT
ATOM      1  C   LIG d   1      -5.967  93.283 118.320  0.00  0.00     0.161 C 
ATOM      2  C   LIG d   1      -6.964  92.564 117.640  0.00  0.00     0.016 C 
ATOM      3  C   LIG d   1      -6.721  91.346 116.964  0.00  0.00     0.038 C 
ATOM      4  C   LIG d   1      -5.488  90.683 117.050  0.00  0.00     0.028 C 
ATOM      5  C   LIG d   1      -4.313  91.621 117.305  0.00  0.00    -0.047 C 
ATOM      6  C   LIG d   1      -4.641  92.519 118.519  0.00  0.00     0.091 C 
ENDROOT
BRANCH   1   7
ATOM      7  O   LIG d   1      -6.475  93.743 119.588  0.00  0.00    -0.368 OA
BRANCH   7   8
ATOM      8  C   LIG d   1      -7.889  94.057 119.631  0.00  0.00     0.119 C 
BRANCH   8   9
ATOM      9  C   LIG d   1      -8.033  95.576 119.411  0.00  0.00     0.028 C 
ATOM     10  C   LIG d   1      -9.173  95.922 118.438  0.00  0.00     0.006 C 
ENDBRANCH   8   9
BRANCH   8  11
ATOM     11  C   LIG d   1      -8.476  93.792 121.021  0.00  0.00     0.028 C 
ATOM     12  C   LIG d   1      -8.728  92.300 121.286  0.00  0.00     0.006 C 
ENDBRANCH   8  11
ENDBRANCH   7   8
ENDBRANCH   1   7
BRANCH   6  13
ATOM     13  N   LIG d   1      -3.579  93.524 118.785  0.00  0.00    -0.311 N 
ATOM     14  C   LIG d   1      -2.559  93.310 119.614  0.00  0.00     0.210 C 
ATOM     15  C   LIG d   1      -1.587  94.485 119.760  0.00  0.00     0.109 C 
ATOM     16  O   LIG d   1      -2.348  92.248 120.218  0.00  0.00    -0.276 OA
ATOM     17  H   LIG d   1      -3.654  94.403 118.312  0.00  0.00     0.149 HD
ENDBRANCH   6  13
BRANCH   5  18
ATOM     18  N   LIG d   1      -3.113  90.787 117.510  0.00  0.00     0.381 N 
ATOM     19  H   LIG d   1      -2.608  91.111 118.310  0.00  0.00    -0.090 HD
ATOM     20  H   LIG d   1      -2.517  90.871 116.705  0.00  0.00    -0.090 HD
ATOM     21  H   LIG d   1      -3.378  89.835 117.638  0.00  0.00    -0.090 HD
ENDBRANCH   5  18
BRANCH   3  22
ATOM     22  C   LIG d   1      -7.708  90.800 116.157  0.00  0.00     0.382 C 
ATOM     23  O   LIG d   1      -8.408  91.545 115.430  0.00  0.00    -0.241 OA
ATOM     24  O   LIG d   1      -7.936  89.576 116.180  0.00  0.00    -0.241 OA
ENDBRANCH   3  22
TORSDOF 7
ENDMDL
MODEL 4
REMARK VINA RESULT:      -4.5      2.752      4.760
REMARK  7 active torsions:
REMARK  status: ('A' for Active; 'I' for Inactive)
REMARK    1  A    between atoms: C_2  and  C_3 
REMARK    2  A    between atoms: C_3  and  O_6 
REMARK    3  A    between atoms: C_3  and  C_4 
REMARK    4  A    between atoms: C_7  and  O_6 
REMARK    5  A    between atoms: C_9  and  C_10 
REMARK    6  A    between atoms: N_15  and  C_14 
REMARK    7  A    between atoms: N_20  and  C_19 
REMARK       I    between atoms: C_22  and  N_20 
ROOT
ATOM      1  C   LIG d   1      -6.325  92.575 119.036  0.00  0.00     0.161 C 
ATOM      2  C   LIG d   1      -7.643  92.412 119.494  0.00  0.00     0.016 C 
ATOM      3  C   LIG d   1      -8.090  92.869 120.755  0.00  0.00     0.038 C 
ATOM      4  C   LIG d   1      -7.283  93.658 121.587  0.00  0.00     0.028 C 
ATOM      5  C   LIG d   1      -5.790  93.417 121.389  0.00  0.00    -0.047 C 
ATOM      6  C   LIG d   1      -5.459  93.532 119.883  0.00  0.00     0.091 C 
ENDROOT
BRANCH   1   7
ATOM      7  O   LIG d   1      -6.335  92.997 117.658  0.00  0.00    -0.368 OA
BRANCH   7   8
ATOM      8  C   LIG d   1      -5.682  92.111 116.715  0.00  0.00     0.119 C 
BRANCH   8   9
ATOM      9  C   LIG d   1      -6.594  91.997 115.479  0.00  0.00     0.028 C 
ATOM     10  C   LIG d   1      -7.556  90.800 115.569  0.00  0.00     0.006 C 
ENDBRANCH   8   9
BRANCH   8  11
ATOM     11  C   LIG d   1      -5.572  90.689 117.272  0.00  0.00     0.028 C 
ATOM     12  C   LIG d   1      -4.117  90.211 117.403  0.00  0.00     0.006 C 
ENDBRANCH   8  11
ENDBRANCH   7   8
ENDBRANCH   1   7
BRANCH   6  13
ATOM     13  N   LIG d   1      -4.034  93.227 119.591  0.00  0.00    -0.311 N 
ATOM     14  C   LIG d   1      -3.087  94.159 119.506  0.00  0.00     0.210 C 
ATOM     15  C   LIG d   1      -1.688  93.632 119.176  0.00  0.00     0.109 C 
ATOM     16  O   LIG d   1      -3.268  95.370 119.704  0.00  0.00    -0.276 OA
ATOM     17  H   LIG d   1      -3.794  92.265 119.448  0.00  0.00     0.149 HD
ENDBRANCH   6  13
BRANCH   5  18
ATOM     18  N   LIG d   1      -5.066  94.400 122.216  0.00  0.00     0.381 N 
ATOM     19  H   LIG d   1      -5.478  94.445 123.127  0.00  0.00    -0.090 HD
ATOM     20  H   LIG d   1      -5.146  95.306 121.789  0.00  0.00    -0.090 HD
ATOM     21  H   LIG d   1      -4.106  94.143 122.290  0.00  0.00    -0.090 HD
ENDBRANCH   5  18
BRANCH   3  22
ATOM     22  C   LIG d   1      -9.347  92.501 121.212  0.00  0.00     0.382 C 
ATOM     23  O   LIG d   1     -10.373  92.867 120.589  0.00  0.00    -0.241 OA
ATOM     24  O   LIG d   1      -9.469  91.846 122.264  0.00  0.00    -0.241 OA
ENDBRANCH   3  22
TORSDOF 7
ENDMDL
MODEL 5
REMARK VINA RESULT:      -4.4      2.555      3.630
REMARK  7 active torsions:
REMARK  status: ('A' for Active; 'I' for Inactive)
REMARK    1  A    between atoms: C_2  and  C_3 
REMARK    2  A    between atoms: C_3  and  O_6 
REMARK    3  A    between atoms: C_3  and  C_4 
REMARK    4  A    between atoms: C_7  and  O_6 
REMARK    5  A    between atoms: C_9  and  C_10 
REMARK    6  A    between atoms: N_15  and  C_14 
REMARK    7  A    between atoms: N_20  and  C_19 
REMARK       I    between atoms: C_22  and  N_20 
ROOT
ATOM      1  C   LIG d   1      -2.395  91.066 119.384  0.00  0.00     0.161 C 
ATOM      2  C   LIG d   1      -3.208  90.437 118.427  0.00  0.00     0.016 C 
ATOM      3  C   LIG d   1      -4.247  91.099 117.732  0.00  0.00     0.038 C 
ATOM      4  C   LIG d   1      -4.446  92.483 117.840  0.00  0.00     0.028 C 
ATOM      5  C   LIG d   1      -3.978  93.061 119.171  0.00  0.00    -0.047 C 
ATOM      6  C   LIG d   1      -2.525  92.603 119.433  0.00  0.00     0.091 C 
ENDROOT
BRANCH   1   7
ATOM      7  O   LIG d   1      -1.020  90.685 119.183  0.00  0.00    -0.368 OA
BRANCH   7   8
ATOM      8  C   LIG d   1      -0.265  91.494 118.247  0.00  0.00     0.119 C 
BRANCH   8   9
ATOM      9  C   LIG d   1       0.069  90.605 117.033  0.00  0.00     0.028 C 
ATOM     10  C   LIG d   1       1.540  90.159 117.019  0.00  0.00     0.006 C 
ENDBRANCH   8   9
BRANCH   8  11
ATOM     11  C   LIG d   1       1.089  91.906 118.832  0.00  0.00     0.028 C 
ATOM     12  C   LIG d   1       1.236  91.531 120.315  0.00  0.00     0.006 C 
ENDBRANCH   8  11
ENDBRANCH   7   8
ENDBRANCH   1   7
BRANCH   6  13
ATOM     13  N   LIG d   1      -2.018  93.055 120.755  0.00  0.00    -0.311 N 
ATOM     14  C   LIG d   1      -1.284  94.154 120.923  0.00  0.00     0.210 C 
ATOM     15  C   LIG d   1      -0.848  94.426 122.365  0.00  0.00     0.109 C 
ATOM     16  O   LIG d   1      -0.981  94.946 120.018  0.00  0.00    -0.276 OA
ATOM     17  H   LIG d   1      -2.244  92.487 121.549  0.00  0.00     0.149 HD
ENDBRANCH   6  13
BRANCH   5  18
ATOM     18  N   LIG d   1      -4.117  94.527 119.094  0.00  0.00     0.381 N 
ATOM     19  H   LIG d   1      -4.795  94.767 118.399  0.00  0.00    -0.090 HD
ATOM     20  H   LIG d   1      -3.234  94.924 118.823  0.00  0.00    -0.090 HD
ATOM     21  H   LIG d   1      -4.395  94.890 119.979  0.00  0.00    -0.090 HD
ENDBRANCH   5  18
BRANCH   3  22
ATOM     22  C   LIG d   1      -5.126  90.366 116.949  0.00  0.00     0.382 C 
ATOM     23  O   LIG d   1      -4.683  89.575 116.081  0.00  0.00    -0.241 OA
ATOM     24  O   LIG d   1      -6.356  90.517 117.070  0.00  0.00    -0.241 OA
ENDBRANCH   3  22
TORSDOF 7
ENDMDL
MODEL 6
REMARK VINA RESULT:      -4.3      2.969      5.481
REMARK  7 active torsions:
REMARK  status: ('A' for Active; 'I' for Inactive)
REMARK    1  A    between atoms: C_2  and  C_3 
REMARK    2  A    between atoms: C_3  and  O_6 
REMARK    3  A    between atoms: C_3  and  C_4 
REMARK    4  A    between atoms: C_7  and  O_6 
REMARK    5  A    between atoms: C_9  and  C_10 
REMARK    6  A    between atoms: N_15  and  C_14 
REMARK    7  A    between atoms: N_20  and  C_19 
REMARK       I    between atoms: C_22  and  N_20 
ROOT
ATOM      1  C   LIG d   1      -2.327  93.208 118.258  0.00  0.00     0.161 C 
ATOM      2  C   LIG d   1      -1.345  92.213 118.117  0.00  0.00     0.016 C 
ATOM      3  C   LIG d   1      -0.035  92.334 118.634  0.00  0.00     0.038 C 
ATOM      4  C   LIG d   1       0.339  93.401 119.465  0.00  0.00     0.028 C 
ATOM      5  C   LIG d   1      -0.465  94.673 119.215  0.00  0.00    -0.047 C 
ATOM      6  C   LIG d   1      -1.972  94.330 119.255  0.00  0.00     0.091 C 
ENDROOT
BRANCH   1   7
ATOM      7  O   LIG d   1      -3.587  92.604 118.611  0.00  0.00    -0.368 OA
BRANCH   7   8
ATOM      8  C   LIG d   1      -4.414  92.162 117.506  0.00  0.00     0.119 C 
BRANCH   8   9
ATOM      9  C   LIG d   1      -5.855  92.625 117.793  0.00  0.00     0.028 C 
ATOM     10  C   LIG d   1      -5.937  93.574 119.001  0.00  0.00     0.006 C 
ENDBRANCH   8   9
BRANCH   8  11
ATOM     11  C   LIG d   1      -4.485  90.634 117.439  0.00  0.00     0.028 C 
ATOM     12  C   LIG d   1      -4.164  89.963 118.783  0.00  0.00     0.006 C 
ENDBRANCH   8  11
ENDBRANCH   7   8
ENDBRANCH   1   7
BRANCH   6  13
ATOM     13  N   LIG d   1      -2.828  95.502 118.937  0.00  0.00    -0.311 N 
ATOM     14  C   LIG d   1      -3.368  96.289 119.866  0.00  0.00     0.210 C 
ATOM     15  C   LIG d   1      -4.235  97.430 119.323  0.00  0.00     0.109 C 
ATOM     16  O   LIG d   1      -3.186  96.170 121.087  0.00  0.00    -0.276 OA
ATOM     17  H   LIG d   1      -3.003  95.690 117.970  0.00  0.00     0.149 HD
ENDBRANCH   6  13
BRANCH   5  18
ATOM     18  N   LIG d   1      -0.068  95.658 120.238  0.00  0.00     0.381 N 
ATOM     19  H   LIG d   1       0.312  95.186 121.034  0.00  0.00    -0.090 HD
ATOM     20  H   LIG d   1      -0.884  96.167 120.533  0.00  0.00    -0.090 HD
ATOM     21  H   LIG d   1       0.606  96.288 119.862  0.00  0.00    -0.090 HD
ENDBRANCH   5  18
BRANCH   3  22
ATOM     22  C   LIG d   1       0.930  91.399 118.289  0.00  0.00     0.382 C 
ATOM     23  O   LIG d   1       0.588  90.303 117.784  0.00  0.00    -0.241 OA
ATOM     24  O   LIG d   1       2.134  91.620 118.517  0.00  0.00    -0.241 OA
ENDBRANCH   3  22
TORSDOF 7
ENDMDL
MODEL 7
REMARK VINA RESULT:      -4.2      2.681      3.979
REMARK  7 active torsions:
REMARK  status: ('A' for Active; 'I' for Inactive)
REMARK    1  A    between atoms: C_2  and  C_3 
REMARK    2  A    between atoms: C_3  and  O_6 
REMARK    3  A    between atoms: C_3  and  C_4 
REMARK    4  A    between atoms: C_7  and  O_6 
REMARK    5  A    between atoms: C_9  and  C_10 
REMARK    6  A    between atoms: N_15  and  C_14 
REMARK    7  A    between atoms: N_20  and  C_19 
REMARK       I    between atoms: C_22  and  N_20 
ROOT
ATOM      1  C   LIG d   1      -5.776  93.692 119.946  0.00  0.00     0.161 C 
ATOM      2  C   LIG d   1      -6.855  92.920 120.409  0.00  0.00     0.016 C 
ATOM      3  C   LIG d   1      -8.193  93.377 120.413  0.00  0.00     0.038 C 
ATOM      4  C   LIG d   1      -8.565  94.588 119.811  0.00  0.00     0.028 C 
ATOM      5  C   LIG d   1      -7.444  95.621 119.786  0.00  0.00    -0.047 C 
ATOM      6  C   LIG d   1      -6.177  94.972 119.183  0.00  0.00     0.091 C 
ENDROOT
BRANCH   1   7
ATOM      7  O   LIG d   1      -4.905  92.878 119.136  0.00  0.00    -0.368 OA
BRANCH   7   8
ATOM      8  C   LIG d   1      -5.543  91.820 118.379  0.00  0.00     0.119 C 
BRANCH   8   9
ATOM      9  C   LIG d   1      -4.655  90.566 118.498  0.00  0.00     0.028 C 
ATOM     10  C   LIG d   1      -4.210  90.030 117.127  0.00  0.00     0.006 C 
ENDBRANCH   8   9
BRANCH   8  11
ATOM     11  C   LIG d   1      -5.581  92.150 116.884  0.00  0.00     0.028 C 
ATOM     12  C   LIG d   1      -6.970  92.606 116.410  0.00  0.00     0.006 C 
ENDBRANCH   8  11
ENDBRANCH   7   8
ENDBRANCH   1   7
BRANCH   6  13
ATOM     13  N   LIG d   1      -5.008  95.889 119.199  0.00  0.00    -0.311 N 
ATOM     14  C   LIG d   1      -4.517  96.433 120.312  0.00  0.00     0.210 C 
ATOM     15  C   LIG d   1      -3.320  97.366 120.102  0.00  0.00     0.109 C 
ATOM     16  O   LIG d   1      -4.939  96.205 121.455  0.00  0.00    -0.276 OA
ATOM     17  H   LIG d   1      -4.584  96.103 118.317  0.00  0.00     0.149 HD
ENDBRANCH   6  13
BRANCH   5  18
ATOM     18  N   LIG d   1      -7.924  96.781 119.010  0.00  0.00     0.381 N 
ATOM     19  H   LIG d   1      -8.461  96.466 118.227  0.00  0.00    -0.090 HD
ATOM     20  H   LIG d   1      -7.130  97.291 118.664  0.00  0.00    -0.090 HD
ATOM     21  H   LIG d   1      -8.481  97.371 119.588  0.00  0.00    -0.090 HD
ENDBRANCH   5  18
BRANCH   3  22
ATOM     22  C   LIG d   1      -9.170  92.636 121.061  0.00  0.00     0.382 C 
ATOM     23  O   LIG d   1     -10.377  92.784 120.752  0.00  0.00    -0.241 OA
ATOM     24  O   LIG d   1      -8.864  91.854 121.981  0.00  0.00    -0.241 OA
ENDBRANCH   3  22
TORSDOF 7
ENDMDL
MODEL 8
REMARK VINA RESULT:      -4.2      2.463      5.069
REMARK  7 active torsions:
REMARK  status: ('A' for Active; 'I' for Inactive)
REMARK    1  A    between atoms: C_2  and  C_3 
REMARK    2  A    between atoms: C_3  and  O_6 
REMARK    3  A    between atoms: C_3  and  C_4 
REMARK    4  A    between atoms: C_7  and  O_6 
REMARK    5  A    between atoms: C_9  and  C_10 
REMARK    6  A    between atoms: N_15  and  C_14 
REMARK    7  A    between atoms: N_20  and  C_19 
REMARK       I    between atoms: C_22  and  N_20 
ROOT
ATOM      1  C   LIG d   1      -2.712  93.281 118.143  0.00  0.00     0.161 C 
ATOM      2  C   LIG d   1      -1.541  92.506 118.095  0.00  0.00     0.016 C 
ATOM      3  C   LIG d   1      -0.553  92.526 119.106  0.00  0.00     0.038 C 
ATOM      4  C   LIG d   1      -0.742  93.215 120.314  0.00  0.00     0.028 C 
ATOM      5  C   LIG d   1      -1.680  94.410 120.189  0.00  0.00    -0.047 C 
ATOM      6  C   LIG d   1      -2.988  93.953 119.504  0.00  0.00     0.091 C 
ENDROOT
BRANCH   1   7
ATOM      7  O   LIG d   1      -3.843  92.483 117.740  0.00  0.00    -0.368 OA
BRANCH   7   8
ATOM      8  C   LIG d   1      -4.481  91.708 118.785  0.00  0.00     0.119 C 
BRANCH   8   9
ATOM      9  C   LIG d   1      -4.289  90.219 118.438  0.00  0.00     0.028 C 
ATOM     10  C   LIG d   1      -4.319  89.960 116.923  0.00  0.00     0.006 C 
ENDBRANCH   8   9
BRANCH   8  11
ATOM     11  C   LIG d   1      -5.996  91.930 118.797  0.00  0.00     0.028 C 
ATOM     12  C   LIG d   1      -6.461  92.926 117.723  0.00  0.00     0.006 C 
ENDBRANCH   8  11
ENDBRANCH   7   8
ENDBRANCH   1   7
BRANCH   6  13
ATOM     13  N   LIG d   1      -3.927  95.080 119.268  0.00  0.00    -0.311 N 
ATOM     14  C   LIG d   1      -4.941  95.372 120.081  0.00  0.00     0.210 C 
ATOM     15  C   LIG d   1      -5.800  96.562 119.641  0.00  0.00     0.109 C 
ATOM     16  O   LIG d   1      -5.190  94.780 121.142  0.00  0.00    -0.276 OA
ATOM     17  H   LIG d   1      -3.779  95.633 118.446  0.00  0.00     0.149 HD
ENDBRANCH   6  13
BRANCH   5  18
ATOM     18  N   LIG d   1      -1.895  94.951 121.545  0.00  0.00     0.381 N 
ATOM     19  H   LIG d   1      -2.824  94.740 121.850  0.00  0.00    -0.090 HD
ATOM     20  H   LIG d   1      -1.791  95.950 121.517  0.00  0.00    -0.090 HD
ATOM     21  H   LIG d   1      -1.233  94.558 122.178  0.00  0.00    -0.090 HD
ENDBRANCH   5  18
BRANCH   3  22
ATOM     22  C   LIG d   1       0.658  91.884 118.896  0.00  0.00     0.382 C 
ATOM     23  O   LIG d   1       0.691  90.637 118.760  0.00  0.00    -0.241 OA
ATOM     24  O   LIG d   1       1.722  92.531 118.884  0.00  0.00    -0.241 OA
ENDBRANCH   3  22
TORSDOF 7
ENDMDL
MODEL 9
REMARK VINA RESULT:      -4.2      2.796      4.694
REMARK  7 active torsions:
REMARK  status: ('A' for Active; 'I' for Inactive)
REMARK    1  A    between atoms: C_2  and  C_3 
REMARK    2  A    between atoms: C_3  and  O_6 
REMARK    3  A    between atoms: C_3  and  C_4 
REMARK    4  A    between atoms: C_7  and  O_6 
REMARK    5  A    between atoms: C_9  and  C_10 
REMARK    6  A    between atoms: N_15  and  C_14 
REMARK    7  A    between atoms: N_20  and  C_19 
REMARK       I    between atoms: C_22  and  N_20 
ROOT
ATOM      1  C   LIG d   1      -6.468  93.055 119.648  0.00  0.00     0.161 C 
ATOM      2  C   LIG d   1      -7.820  92.773 119.903  0.00  0.00     0.016 C 
ATOM      3  C   LIG d   1      -8.553  93.366 120.956  0.00  0.00     0.038 C 
ATOM      4  C   LIG d   1      -8.022  94.403 121.737  0.00  0.00     0.028 C 
ATOM      5  C   LIG d   1      -6.501  94.364 121.842  0.00  0.00    -0.047 C 
ATOM      6  C   LIG d   1      -5.903  94.265 120.420  0.00  0.00     0.091 C 
ENDROOT
BRANCH   1   7
ATOM      7  O   LIG d   1      -6.263  93.225 118.231  0.00  0.00    -0.368 OA
BRANCH   7   8
ATOM      8  C   LIG d   1      -5.210  92.425 117.639  0.00  0.00     0.119 C 
BRANCH   8   9
ATOM      9  C   LIG d   1      -5.715  91.937 116.267  0.00  0.00     0.028 C 
ATOM     10  C   LIG d   1      -7.211  92.226 116.056  0.00  0.00     0.006 C 
ENDBRANCH   8   9
BRANCH   8  11
ATOM     11  C   LIG d   1      -4.952  91.153 118.452  0.00  0.00     0.028 C 
ATOM     12  C   LIG d   1      -4.267  90.049 117.631  0.00  0.00     0.006 C 
ENDBRANCH   8  11
ENDBRANCH   7   8
ENDBRANCH   1   7
BRANCH   6  13
ATOM     13  N   LIG d   1      -4.422  94.137 120.436  0.00  0.00    -0.311 N 
ATOM     14  C   LIG d   1      -3.596  95.145 120.159  0.00  0.00     0.210 C 
ATOM     15  C   LIG d   1      -2.106  94.793 120.213  0.00  0.00     0.109 C 
ATOM     16  O   LIG d   1      -3.955  96.304 119.906  0.00  0.00    -0.276 OA
ATOM     17  H   LIG d   1      -4.044  93.238 120.663  0.00  0.00     0.149 HD
ENDBRANCH   6  13
BRANCH   5  18
ATOM     18  N   LIG d   1      -6.073  95.575 122.567  0.00  0.00     0.381 N 
ATOM     19  H   LIG d   1      -6.871  96.036 122.957  0.00  0.00    -0.090 HD
ATOM     20  H   LIG d   1      -5.631  96.203 121.919  0.00  0.00    -0.090 HD
ATOM     21  H   LIG d   1      -5.434  95.330 123.292  0.00  0.00    -0.090 HD
ENDBRANCH   5  18
BRANCH   3  22
ATOM     22  C   LIG d   1      -9.821  92.895 121.261  0.00  0.00     0.382 C 
ATOM     23  O   LIG d   1     -10.034  92.338 122.365  0.00  0.00    -0.241 OA
ATOM     24  O   LIG d   1     -10.744  92.980 120.429  0.00  0.00    -0.241 OA
ENDBRANCH   3  22
TORSDOF 7
ENDMDL
