MODEL 1
REMARK VINA RESULT:      -5.3      0.000      0.000
REMARK  7 active torsions:
REMARK  status: ('A' for Active; 'I' for Inactive)
REMARK    1  A    between atoms: C_2  and  C_3 
REMARK    2  A    between atoms: C_3  and  O_6 
REMARK    3  A    between atoms: C_3  and  C_4 
REMARK    4  A    between atoms: C_7  and  O_6 
REMARK    5  A    between atoms: C_9  and  C_10 
REMARK    6  A    between atoms: N_15  and  C_14 
REMARK    7  A    between atoms: N_20  and  C_19 
REMARK       I    between atoms: C_22  and  N_20 
ROOT
ATOM      1  C   LIG d   1      -4.480  92.684 117.689  0.00  0.00     0.161 C 
ATOM      2  C   LIG d   1      -5.824  93.090 117.654  0.00  0.00     0.016 C 
ATOM      3  C   LIG d   1      -6.829  92.395 116.943  0.00  0.00     0.038 C 
ATOM      4  C   LIG d   1      -6.585  91.153 116.337  0.00  0.00     0.028 C 
ATOM      5  C   LIG d   1      -5.131  90.959 115.920  0.00  0.00    -0.047 C 
ATOM      6  C   LIG d   1      -4.216  91.271 117.126  0.00  0.00     0.091 C 
ENDROOT
BRANCH   1   7
ATOM      7  O   LIG d   1      -3.972  92.790 119.034  0.00  0.00    -0.368 OA
BRANCH   7   8
ATOM      8  C   LIG d   1      -3.107  93.922 119.301  0.00  0.00     0.119 C 
BRANCH   8   9
ATOM      9  C   LIG d   1      -4.003  95.096 119.739  0.00  0.00     0.028 C 
ATOM     10  C   LIG d   1      -3.508  96.447 119.196  0.00  0.00     0.006 C 
ENDBRANCH   8   9
BRANCH   8  11
ATOM     11  C   LIG d   1      -2.406  94.400 118.026  0.00  0.00     0.028 C 
ATOM     12  C   LIG d   1      -0.906  94.068 118.010  0.00  0.00     0.006 C 
ENDBRANCH   8  11
ENDBRANCH   7   8
ENDBRANCH   1   7
BRANCH   6  13
ATOM     13  N   LIG d   1      -2.773  91.187 116.781  0.00  0.00    -0.311 N 
ATOM     14  C   LIG d   1      -1.906  90.420 117.439  0.00  0.00     0.210 C 
ATOM     15  C   LIG d   1      -0.462  90.496 116.932  0.00  0.00     0.109 C 
ATOM     16  O   LIG d   1      -2.200  89.660 118.373  0.00  0.00    -0.276 OA
ATOM     17  H   LIG d   1      -2.454  91.747 116.015  0.00  0.00     0.149 HD
ENDBRANCH   6  13
BRANCH   5  18
ATOM     18  N   LIG d   1      -4.989  89.574 115.431  0.00  0.00     0.381 N 
ATOM     19  H   LIG d   1      -5.716  89.371 114.774  0.00  0.00    -0.090 HD
ATOM     20  H   LIG d   1      -5.080  88.944 116.208  0.00  0.00    -0.090 HD
ATOM     21  H   LIG d   1      -4.099  89.455 114.999  0.00  0.00    -0.090 HD
ENDBRANCH   5  18
BRANCH   3  22
ATOM     22  C   LIG d   1      -8.086  92.962 116.798  0.00  0.00     0.382 C 
ATOM     23  O   LIG d   1      -8.513  93.767 117.660  0.00  0.00    -0.241 OA
ATOM     24  O   LIG d   1      -8.816  92.645 115.840  0.00  0.00    -0.241 OA
ENDBRANCH   3  22
TORSDOF 7
ENDMDL
MODEL 2
REMARK VINA RESULT:      -5.3      2.341      4.225
REMARK  7 active torsions:
REMARK  status: ('A' for Active; 'I' for Inactive)
REMARK    1  A    between atoms: C_2  and  C_3 
REMARK    2  A    between atoms: C_3  and  O_6 
REMARK    3  A    between atoms: C_3  and  C_4 
REMARK    4  A    between atoms: C_7  and  O_6 
REMARK    5  A    between atoms: C_9  and  C_10 
REMARK    6  A    between atoms: N_15  and  C_14 
REMARK    7  A    between atoms: N_20  and  C_19 
REMARK       I    between atoms: C_22  and  N_20 
ROOT
ATOM      1  C   LIG d   1      -6.167  93.549 117.715  0.00  0.00     0.161 C 
ATOM      2  C   LIG d   1      -6.948  92.489 117.227  0.00  0.00     0.016 C 
ATOM      3  C   LIG d   1      -6.405  91.257 116.794  0.00  0.00     0.038 C 
ATOM      4  C   LIG d   1      -5.048  90.944 116.964  0.00  0.00     0.028 C 
ATOM      5  C   LIG d   1      -4.142  92.171 116.985  0.00  0.00    -0.047 C 
ATOM      6  C   LIG d   1      -4.696  93.186 118.011  0.00  0.00     0.091 C 
ENDROOT
BRANCH   1   7
ATOM      7  O   LIG d   1      -6.788  94.116 118.885  0.00  0.00    -0.368 OA
BRANCH   7   8
ATOM      8  C   LIG d   1      -7.906  95.005 118.646  0.00  0.00     0.119 C 
BRANCH   8   9
ATOM      9  C   LIG d   1      -7.329  96.381 118.261  0.00  0.00     0.028 C 
ATOM     10  C   LIG d   1      -6.373  96.936 119.330  0.00  0.00     0.006 C 
ENDBRANCH   8   9
BRANCH   8  11
ATOM     11  C   LIG d   1      -8.711  95.247 119.927  0.00  0.00     0.028 C 
ATOM     12  C   LIG d   1      -9.540  94.024 120.349  0.00  0.00     0.006 C 
ENDBRANCH   8  11
ENDBRANCH   7   8
ENDBRANCH   1   7
BRANCH   6  13
ATOM     13  N   LIG d   1      -3.917  94.451 118.034  0.00  0.00    -0.311 N 
ATOM     14  C   LIG d   1      -3.307  94.916 119.123  0.00  0.00     0.210 C 
ATOM     15  C   LIG d   1      -2.574  96.248 118.934  0.00  0.00     0.109 C 
ATOM     16  O   LIG d   1      -3.276  94.336 120.219  0.00  0.00    -0.276 OA
ATOM     17  H   LIG d   1      -3.864  94.970 117.179  0.00  0.00     0.149 HD
ENDBRANCH   6  13
BRANCH   5  18
ATOM     18  N   LIG d   1      -2.778  91.712 117.305  0.00  0.00     0.381 N 
ATOM     19  H   LIG d   1      -2.109  92.367 116.954  0.00  0.00    -0.090 HD
ATOM     20  H   LIG d   1      -2.619  90.827 116.856  0.00  0.00    -0.090 HD
ATOM     21  H   LIG d   1      -2.673  91.615 118.291  0.00  0.00    -0.090 HD
ENDBRANCH   5  18
BRANCH   3  22
ATOM     22  C   LIG d   1      -7.217  90.337 116.148  0.00  0.00     0.382 C 
ATOM     23  O   LIG d   1      -8.285  90.714 115.608  0.00  0.00    -0.241 OA
ATOM     24  O   LIG d   1      -6.918  89.128 116.137  0.00  0.00    -0.241 OA
ENDBRANCH   3  22
TORSDOF 7
ENDMDL
MODEL 3
REMARK VINA RESULT:      -5.2      2.572      4.336
REMARK  7 active torsions:
REMARK  status: ('A' for Active; 'I' for Inactive)
REMARK    1  A    between atoms: C_2  and  C_3 
REMARK    2  A    between atoms: C_3  and  O_6 
REMARK    3  A    between atoms: C_3  and  C_4 
REMARK    4  A    between atoms: C_7  and  O_6 
REMARK    5  A    between atoms: C_9  and  C_10 
REMARK    6  A    between atoms: N_15  and  C_14 
REMARK    7  A    between atoms: N_20  and  C_19 
REMARK       I    between atoms: C_22  and  N_20 
ROOT
ATOM      1  C   LIG d   1      -4.757  92.869 117.865  0.00  0.00     0.161 C 
ATOM      2  C   LIG d   1      -4.823  91.633 117.201  0.00  0.00     0.016 C 
ATOM      3  C   LIG d   1      -6.005  91.127 116.614  0.00  0.00     0.038 C 
ATOM      4  C   LIG d   1      -7.174  91.897 116.519  0.00  0.00     0.028 C 
ATOM      5  C   LIG d   1      -7.300  92.946 117.619  0.00  0.00    -0.047 C 
ATOM      6  C   LIG d   1      -5.994  93.772 117.675  0.00  0.00     0.091 C 
ENDROOT
BRANCH   1   7
ATOM      7  O   LIG d   1      -3.561  93.571 117.475  0.00  0.00    -0.368 OA
BRANCH   7   8
ATOM      8  C   LIG d   1      -2.415  93.412 118.347  0.00  0.00     0.119 C 
BRANCH   8   9
ATOM      9  C   LIG d   1      -2.577  94.409 119.511  0.00  0.00     0.028 C 
ATOM     10  C   LIG d   1      -2.545  95.872 119.038  0.00  0.00     0.006 C 
ENDBRANCH   8   9
BRANCH   8  11
ATOM     11  C   LIG d   1      -1.117  93.818 117.643  0.00  0.00     0.028 C 
ATOM     12  C   LIG d   1       0.132  93.204 118.295  0.00  0.00     0.006 C 
ENDBRANCH   8  11
ENDBRANCH   7   8
ENDBRANCH   1   7
BRANCH   6  13
ATOM     13  N   LIG d   1      -6.000  94.766 118.780  0.00  0.00    -0.311 N 
ATOM     14  C   LIG d   1      -6.521  95.986 118.666  0.00  0.00     0.210 C 
ATOM     15  C   LIG d   1      -6.404  96.859 119.920  0.00  0.00     0.109 C 
ATOM     16  O   LIG d   1      -7.099  96.417 117.657  0.00  0.00    -0.276 OA
ATOM     17  H   LIG d   1      -5.580  94.488 119.646  0.00  0.00     0.149 HD
ENDBRANCH   6  13
BRANCH   5  18
ATOM     18  N   LIG d   1      -8.490  93.765 117.321  0.00  0.00     0.381 N 
ATOM     19  H   LIG d   1      -8.368  94.232 116.445  0.00  0.00    -0.090 HD
ATOM     20  H   LIG d   1      -8.594  94.460 118.038  0.00  0.00    -0.090 HD
ATOM     21  H   LIG d   1      -9.301  93.187 117.287  0.00  0.00    -0.090 HD
ENDBRANCH   5  18
BRANCH   3  22
ATOM     22  C   LIG d   1      -6.037  89.821 116.149  0.00  0.00     0.382 C 
ATOM     23  O   LIG d   1      -7.121  89.190 116.127  0.00  0.00    -0.241 OA
ATOM     24  O   LIG d   1      -4.988  89.252 115.792  0.00  0.00    -0.241 OA
ENDBRANCH   3  22
TORSDOF 7
ENDMDL
MODEL 4
REMARK VINA RESULT:      -5.2      2.060      3.457
REMARK  7 active torsions:
REMARK  status: ('A' for Active; 'I' for Inactive)
REMARK    1  A    between atoms: C_2  and  C_3 
REMARK    2  A    between atoms: C_3  and  O_6 
REMARK    3  A    between atoms: C_3  and  C_4 
REMARK    4  A    between atoms: C_7  and  O_6 
REMARK    5  A    between atoms: C_9  and  C_10 
REMARK    6  A    between atoms: N_15  and  C_14 
REMARK    7  A    between atoms: N_20  and  C_19 
REMARK       I    between atoms: C_22  and  N_20 
ROOT
ATOM      1  C   LIG d   1      -5.447  92.917 117.107  0.00  0.00     0.161 C 
ATOM      2  C   LIG d   1      -6.557  92.120 116.780  0.00  0.00     0.016 C 
ATOM      3  C   LIG d   1      -6.470  90.732 116.528  0.00  0.00     0.038 C 
ATOM      4  C   LIG d   1      -5.284  90.013 116.735  0.00  0.00     0.028 C 
ATOM      5  C   LIG d   1      -4.026  90.860 116.576  0.00  0.00    -0.047 C 
ATOM      6  C   LIG d   1      -4.164  92.130 117.447  0.00  0.00     0.091 C 
ENDROOT
BRANCH   1   7
ATOM      7  O   LIG d   1      -5.788  93.810 118.186  0.00  0.00    -0.368 OA
BRANCH   7   8
ATOM      8  C   LIG d   1      -7.192  94.140 118.321  0.00  0.00     0.119 C 
BRANCH   8   9
ATOM      9  C   LIG d   1      -7.340  95.651 118.059  0.00  0.00     0.028 C 
ATOM     10  C   LIG d   1      -6.254  96.479 118.768  0.00  0.00     0.006 C 
ENDBRANCH   8   9
BRANCH   8  11
ATOM     11  C   LIG d   1      -7.679  93.928 119.757  0.00  0.00     0.028 C 
ATOM     12  C   LIG d   1      -9.156  94.308 119.948  0.00  0.00     0.006 C 
ENDBRANCH   8  11
ENDBRANCH   7   8
ENDBRANCH   1   7
BRANCH   6  13
ATOM     13  N   LIG d   1      -3.012  93.056 117.285  0.00  0.00    -0.311 N 
ATOM     14  C   LIG d   1      -1.950  93.053 118.088  0.00  0.00     0.210 C 
ATOM     15  C   LIG d   1      -0.885  94.103 117.757  0.00  0.00     0.109 C 
ATOM     16  O   LIG d   1      -1.774  92.258 119.024  0.00  0.00    -0.276 OA
ATOM     17  H   LIG d   1      -3.058  93.714 116.531  0.00  0.00     0.149 HD
ENDBRANCH   6  13
BRANCH   5  18
ATOM     18  N   LIG d   1      -2.873  90.022 116.955  0.00  0.00     0.381 N 
ATOM     19  H   LIG d   1      -3.121  89.055 116.890  0.00  0.00    -0.090 HD
ATOM     20  H   LIG d   1      -2.625  90.222 117.908  0.00  0.00    -0.090 HD
ATOM     21  H   LIG d   1      -2.101  90.214 116.355  0.00  0.00    -0.090 HD
ENDBRANCH   5  18
BRANCH   3  22
ATOM     22  C   LIG d   1      -7.571  90.055 116.024  0.00  0.00     0.382 C 
ATOM     23  O   LIG d   1      -8.478  90.687 115.430  0.00  0.00    -0.241 OA
ATOM     24  O   LIG d   1      -7.690  88.827 116.195  0.00  0.00    -0.241 OA
ENDBRANCH   3  22
TORSDOF 7
ENDMDL
MODEL 5
REMARK VINA RESULT:      -5.1      1.408      1.638
REMARK  7 active torsions:
REMARK  status: ('A' for Active; 'I' for Inactive)
REMARK    1  A    between atoms: C_2  and  C_3 
REMARK    2  A    between atoms: C_3  and  O_6 
REMARK    3  A    between atoms: C_3  and  C_4 
REMARK    4  A    between atoms: C_7  and  O_6 
REMARK    5  A    between atoms: C_9  and  C_10 
REMARK    6  A    between atoms: N_15  and  C_14 
REMARK    7  A    between atoms: N_20  and  C_19 
REMARK       I    between atoms: C_22  and  N_20 
ROOT
ATOM      1  C   LIG d   1      -4.572  93.065 117.807  0.00  0.00     0.161 C 
ATOM      2  C   LIG d   1      -5.938  93.382 117.718  0.00  0.00     0.016 C 
ATOM      3  C   LIG d   1      -6.874  92.599 117.005  0.00  0.00     0.038 C 
ATOM      4  C   LIG d   1      -6.532  91.354 116.454  0.00  0.00     0.028 C 
ATOM      5  C   LIG d   1      -5.057  91.239 116.087  0.00  0.00    -0.047 C 
ATOM      6  C   LIG d   1      -4.202  91.653 117.307  0.00  0.00     0.091 C 
ENDROOT
BRANCH   1   7
ATOM      7  O   LIG d   1      -4.114  93.253 119.161  0.00  0.00    -0.368 OA
BRANCH   7   8
ATOM      8  C   LIG d   1      -4.311  92.134 120.061  0.00  0.00     0.119 C 
BRANCH   8   9
ATOM      9  C   LIG d   1      -5.269  92.599 121.175  0.00  0.00     0.028 C 
ATOM     10  C   LIG d   1      -5.219  94.120 121.395  0.00  0.00     0.006 C 
ENDBRANCH   8   9
BRANCH   8  11
ATOM     11  C   LIG d   1      -3.009  91.759 120.776  0.00  0.00     0.028 C 
ATOM     12  C   LIG d   1      -1.842  92.693 120.418  0.00  0.00     0.006 C 
ENDBRANCH   8  11
ENDBRANCH   7   8
ENDBRANCH   1   7
BRANCH   6  13
ATOM     13  N   LIG d   1      -2.747  91.650 117.006  0.00  0.00    -0.311 N 
ATOM     14  C   LIG d   1      -1.936  90.640 117.319  0.00  0.00     0.210 C 
ATOM     15  C   LIG d   1      -0.467  90.849 116.938  0.00  0.00     0.109 C 
ATOM     16  O   LIG d   1      -2.300  89.578 117.846  0.00  0.00    -0.276 OA
ATOM     17  H   LIG d   1      -2.373  92.460 116.551  0.00  0.00     0.149 HD
ENDBRANCH   6  13
BRANCH   5  18
ATOM     18  N   LIG d   1      -4.812  89.850 115.655  0.00  0.00     0.381 N 
ATOM     19  H   LIG d   1      -5.001  89.762 114.676  0.00  0.00    -0.090 HD
ATOM     20  H   LIG d   1      -5.437  89.240 116.152  0.00  0.00    -0.090 HD
ATOM     21  H   LIG d   1      -3.868  89.596 115.842  0.00  0.00    -0.090 HD
ENDBRANCH   5  18
BRANCH   3  22
ATOM     22  C   LIG d   1      -8.159  93.078 116.803  0.00  0.00     0.382 C 
ATOM     23  O   LIG d   1      -8.674  93.863 117.635  0.00  0.00    -0.241 OA
ATOM     24  O   LIG d   1      -8.827  92.700 115.821  0.00  0.00    -0.241 OA
ENDBRANCH   3  22
TORSDOF 7
ENDMDL
MODEL 6
REMARK VINA RESULT:      -5.1      2.138      4.087
REMARK  7 active torsions:
REMARK  status: ('A' for Active; 'I' for Inactive)
REMARK    1  A    between atoms: C_2  and  C_3 
REMARK    2  A    between atoms: C_3  and  O_6 
REMARK    3  A    between atoms: C_3  and  C_4 
REMARK    4  A    between atoms: C_7  and  O_6 
REMARK    5  A    between atoms: C_9  and  C_10 
REMARK    6  A    between atoms: N_15  and  C_14 
REMARK    7  A    between atoms: N_20  and  C_19 
REMARK       I    between atoms: C_22  and  N_20 
ROOT
ATOM      1  C   LIG d   1      -4.390  91.259 117.635  0.00  0.00     0.161 C 
ATOM      2  C   LIG d   1      -5.374  90.506 116.973  0.00  0.00     0.016 C 
ATOM      3  C   LIG d   1      -6.580  91.059 116.484  0.00  0.00     0.038 C 
ATOM      4  C   LIG d   1      -6.817  92.442 116.490  0.00  0.00     0.028 C 
ATOM      5  C   LIG d   1      -6.077  93.179 117.601  0.00  0.00    -0.047 C 
ATOM      6  C   LIG d   1      -4.582  92.788 117.552  0.00  0.00     0.091 C 
ENDROOT
BRANCH   1   7
ATOM      7  O   LIG d   1      -3.084  90.891 117.150  0.00  0.00    -0.368 OA
BRANCH   7   8
ATOM      8  C   LIG d   1      -2.227  90.197 118.091  0.00  0.00     0.119 C 
BRANCH   8   9
ATOM      9  C   LIG d   1      -0.795  90.729 117.890  0.00  0.00     0.028 C 
ATOM     10  C   LIG d   1      -0.140  91.164 119.212  0.00  0.00     0.006 C 
ENDBRANCH   8   9
BRANCH   8  11
ATOM     11  C   LIG d   1      -2.152  88.700 117.777  0.00  0.00     0.028 C 
ATOM     12  C   LIG d   1      -2.131  87.827 119.041  0.00  0.00     0.006 C 
ENDBRANCH   8  11
ENDBRANCH   7   8
ENDBRANCH   1   7
BRANCH   6  13
ATOM     13  N   LIG d   1      -3.800  93.400 118.659  0.00  0.00    -0.311 N 
ATOM     14  C   LIG d   1      -2.601  93.954 118.489  0.00  0.00     0.210 C 
ATOM     15  C   LIG d   1      -1.959  94.509 119.765  0.00  0.00     0.109 C 
ATOM     16  O   LIG d   1      -2.021  94.067 117.399  0.00  0.00    -0.276 OA
ATOM     17  H   LIG d   1      -4.209  93.379 119.572  0.00  0.00     0.149 HD
ENDBRANCH   6  13
BRANCH   5  18
ATOM     18  N   LIG d   1      -6.303  94.623 117.405  0.00  0.00     0.381 N 
ATOM     19  H   LIG d   1      -7.162  94.893 117.842  0.00  0.00    -0.090 HD
ATOM     20  H   LIG d   1      -6.377  94.811 116.421  0.00  0.00    -0.090 HD
ATOM     21  H   LIG d   1      -5.547  95.143 117.794  0.00  0.00    -0.090 HD
ENDBRANCH   5  18
BRANCH   3  22
ATOM     22  C   LIG d   1      -7.581  90.221 116.017  0.00  0.00     0.382 C 
ATOM     23  O   LIG d   1      -8.583  90.704 115.437  0.00  0.00    -0.241 OA
ATOM     24  O   LIG d   1      -7.516  88.992 116.208  0.00  0.00    -0.241 OA
ENDBRANCH   3  22
TORSDOF 7
ENDMDL
MODEL 7
REMARK VINA RESULT:      -4.8      2.352      3.996
REMARK  7 active torsions:
REMARK  status: ('A' for Active; 'I' for Inactive)
REMARK    1  A    between atoms: C_2  and  C_3 
REMARK    2  A    between atoms: C_3  and  O_6 
REMARK    3  A    between atoms: C_3  and  C_4 
REMARK    4  A    between atoms: C_7  and  O_6 
REMARK    5  A    between atoms: C_9  and  C_10 
REMARK    6  A    between atoms: N_15  and  C_14 
REMARK    7  A    between atoms: N_20  and  C_19 
REMARK       I    between atoms: C_22  and  N_20 
ROOT
ATOM      1  C   LIG d   1      -4.840  91.791 118.389  0.00  0.00     0.161 C 
ATOM      2  C   LIG d   1      -5.548  90.891 117.575  0.00  0.00     0.016 C 
ATOM      3  C   LIG d   1      -6.610  91.279 116.726  0.00  0.00     0.038 C 
ATOM      4  C   LIG d   1      -6.939  92.627 116.519  0.00  0.00     0.028 C 
ATOM      5  C   LIG d   1      -6.587  93.524 117.701  0.00  0.00    -0.047 C 
ATOM      6  C   LIG d   1      -5.112  93.281 118.094  0.00  0.00     0.091 C 
ENDROOT
BRANCH   1   7
ATOM      7  O   LIG d   1      -3.428  91.514 118.311  0.00  0.00    -0.368 OA
BRANCH   7   8
ATOM      8  C   LIG d   1      -2.971  90.331 119.011  0.00  0.00     0.119 C 
BRANCH   8   9
ATOM      9  C   LIG d   1      -2.795  90.709 120.494  0.00  0.00     0.028 C 
ATOM     10  C   LIG d   1      -1.839  91.898 120.687  0.00  0.00     0.006 C 
ENDBRANCH   8   9
BRANCH   8  11
ATOM     11  C   LIG d   1      -1.579  89.904 118.534  0.00  0.00     0.028 C 
ATOM     12  C   LIG d   1      -1.147  90.617 117.243  0.00  0.00     0.006 C 
ENDBRANCH   8  11
ENDBRANCH   7   8
ENDBRANCH   1   7
BRANCH   6  13
ATOM     13  N   LIG d   1      -4.709  94.058 119.295  0.00  0.00    -0.311 N 
ATOM     14  C   LIG d   1      -3.630  94.838 119.336  0.00  0.00     0.210 C 
ATOM     15  C   LIG d   1      -3.387  95.534 120.679  0.00  0.00     0.109 C 
ATOM     16  O   LIG d   1      -2.870  95.044 118.378  0.00  0.00    -0.276 OA
ATOM     17  H   LIG d   1      -5.288  93.973 120.108  0.00  0.00     0.149 HD
ENDBRANCH   6  13
BRANCH   5  18
ATOM     18  N   LIG d   1      -6.855  94.918 117.298  0.00  0.00     0.381 N 
ATOM     19  H   LIG d   1      -6.508  95.545 117.996  0.00  0.00    -0.090 HD
ATOM     20  H   LIG d   1      -7.848  95.049 117.222  0.00  0.00    -0.090 HD
ATOM     21  H   LIG d   1      -6.420  95.109 116.422  0.00  0.00    -0.090 HD
ENDBRANCH   5  18
BRANCH   3  22
ATOM     22  C   LIG d   1      -7.381  90.310 116.103  0.00  0.00     0.382 C 
ATOM     23  O   LIG d   1      -8.428  90.637 115.494  0.00  0.00    -0.241 OA
ATOM     24  O   LIG d   1      -7.067  89.107 116.181  0.00  0.00    -0.241 OA
ENDBRANCH   3  22
TORSDOF 7
ENDMDL
MODEL 8
REMARK VINA RESULT:      -4.7      2.478      4.762
REMARK  7 active torsions:
REMARK  status: ('A' for Active; 'I' for Inactive)
REMARK    1  A    between atoms: C_2  and  C_3 
REMARK    2  A    between atoms: C_3  and  O_6 
REMARK    3  A    between atoms: C_3  and  C_4 
REMARK    4  A    between atoms: C_7  and  O_6 
REMARK    5  A    between atoms: C_9  and  C_10 
REMARK    6  A    between atoms: N_15  and  C_14 
REMARK    7  A    between atoms: N_20  and  C_19 
REMARK       I    between atoms: C_22  and  N_20 
ROOT
ATOM      1  C   LIG d   1      -3.128  90.507 117.829  0.00  0.00     0.161 C 
ATOM      2  C   LIG d   1      -4.332  90.099 117.230  0.00  0.00     0.016 C 
ATOM      3  C   LIG d   1      -5.377  90.992 116.897  0.00  0.00     0.038 C 
ATOM      4  C   LIG d   1      -5.226  92.383 117.003  0.00  0.00     0.028 C 
ATOM      5  C   LIG d   1      -4.222  92.804 118.071  0.00  0.00    -0.047 C 
ATOM      6  C   LIG d   1      -2.901  92.033 117.849  0.00  0.00     0.091 C 
ENDROOT
BRANCH   1   7
ATOM      7  O   LIG d   1      -2.018  89.843 117.193  0.00  0.00    -0.368 OA
BRANCH   7   8
ATOM      8  C   LIG d   1      -1.391  88.781 117.953  0.00  0.00     0.119 C 
BRANCH   8   9
ATOM      9  C   LIG d   1      -1.782  87.446 117.292  0.00  0.00     0.028 C 
ATOM     10  C   LIG d   1      -0.683  86.908 116.360  0.00  0.00     0.006 C 
ENDBRANCH   8   9
BRANCH   8  11
ATOM     11  C   LIG d   1      -1.951  88.709 119.377  0.00  0.00     0.028 C 
ATOM     12  C   LIG d   1      -2.288  87.274 119.812  0.00  0.00     0.006 C 
ENDBRANCH   8  11
ENDBRANCH   7   8
ENDBRANCH   1   7
BRANCH   6  13
ATOM     13  N   LIG d   1      -1.892  92.323 118.901  0.00  0.00    -0.311 N 
ATOM     14  C   LIG d   1      -0.636  92.677 118.635  0.00  0.00     0.210 C 
ATOM     15  C   LIG d   1       0.245  92.910 119.866  0.00  0.00     0.109 C 
ATOM     16  O   LIG d   1      -0.176  92.850 117.496  0.00  0.00    -0.276 OA
ATOM     17  H   LIG d   1      -2.189  92.238 119.854  0.00  0.00     0.149 HD
ENDBRANCH   6  13
BRANCH   5  18
ATOM     18  N   LIG d   1      -4.061  94.267 117.979  0.00  0.00     0.381 N 
ATOM     19  H   LIG d   1      -3.258  94.485 117.423  0.00  0.00    -0.090 HD
ATOM     20  H   LIG d   1      -3.916  94.637 118.902  0.00  0.00    -0.090 HD
ATOM     21  H   LIG d   1      -4.875  94.675 117.574  0.00  0.00    -0.090 HD
ENDBRANCH   5  18
BRANCH   3  22
ATOM     22  C   LIG d   1      -6.605  90.492 116.490  0.00  0.00     0.382 C 
ATOM     23  O   LIG d   1      -7.613  91.238 116.477  0.00  0.00    -0.241 OA
ATOM     24  O   LIG d   1      -6.726  89.292 116.178  0.00  0.00    -0.241 OA
ENDBRANCH   3  22
TORSDOF 7
ENDMDL
MODEL 9
REMARK VINA RESULT:      -4.6      2.216      4.287
REMARK  7 active torsions:
REMARK  status: ('A' for Active; 'I' for Inactive)
REMARK    1  A    between atoms: C_2  and  C_3 
REMARK    2  A    between atoms: C_3  and  O_6 
REMARK    3  A    between atoms: C_3  and  C_4 
REMARK    4  A    between atoms: C_7  and  O_6 
REMARK    5  A    between atoms: C_9  and  C_10 
REMARK    6  A    between atoms: N_15  and  C_14 
REMARK    7  A    between atoms: N_20  and  C_19 
REMARK       I    between atoms: C_22  and  N_20 
ROOT
ATOM      1  C   LIG d   1      -4.962  92.851 117.860  0.00  0.00     0.161 C 
ATOM      2  C   LIG d   1      -6.286  93.317 117.797  0.00  0.00     0.016 C 
ATOM      3  C   LIG d   1      -6.738  94.470 118.478  0.00  0.00     0.038 C 
ATOM      4  C   LIG d   1      -5.855  95.327 119.152  0.00  0.00     0.028 C 
ATOM      5  C   LIG d   1      -4.601  94.626 119.662  0.00  0.00    -0.047 C 
ATOM      6  C   LIG d   1      -3.960  93.835 118.499  0.00  0.00     0.091 C 
ENDROOT
BRANCH   1   7
ATOM      7  O   LIG d   1      -4.516  92.466 116.544  0.00  0.00    -0.368 OA
BRANCH   7   8
ATOM      8  C   LIG d   1      -4.366  91.044 116.312  0.00  0.00     0.119 C 
BRANCH   8   9
ATOM      9  C   LIG d   1      -5.560  90.587 115.452  0.00  0.00     0.028 C 
ATOM     10  C   LIG d   1      -6.645  89.880 116.282  0.00  0.00     0.006 C 
ENDBRANCH   8   9
BRANCH   8  11
ATOM     11  C   LIG d   1      -4.480  90.252 117.618  0.00  0.00     0.028 C 
ATOM     12  C   LIG d   1      -3.156  89.588 118.030  0.00  0.00     0.006 C 
ENDBRANCH   8  11
ENDBRANCH   7   8
ENDBRANCH   1   7
BRANCH   6  13
ATOM     13  N   LIG d   1      -2.774  93.051 118.933  0.00  0.00    -0.311 N 
ATOM     14  C   LIG d   1      -1.595  93.104 118.316  0.00  0.00     0.210 C 
ATOM     15  C   LIG d   1      -0.511  92.200 118.914  0.00  0.00     0.109 C 
ATOM     16  O   LIG d   1      -1.333  93.838 117.351  0.00  0.00    -0.276 OA
ATOM     17  H   LIG d   1      -2.889  92.452 119.727  0.00  0.00     0.149 HD
ENDBRANCH   6  13
BRANCH   5  18
ATOM     18  N   LIG d   1      -3.708  95.659 120.220  0.00  0.00     0.381 N 
ATOM     19  H   LIG d   1      -4.193  96.184 120.920  0.00  0.00    -0.090 HD
ATOM     20  H   LIG d   1      -3.439  96.288 119.484  0.00  0.00    -0.090 HD
ATOM     21  H   LIG d   1      -2.899  95.233 120.616  0.00  0.00    -0.090 HD
ENDBRANCH   5  18
BRANCH   3  22
ATOM     22  C   LIG d   1      -8.094  94.754 118.523  0.00  0.00     0.382 C 
ATOM     23  O   LIG d   1      -8.485  95.893 118.876  0.00  0.00    -0.241 OA
ATOM     24  O   LIG d   1      -8.934  93.873 118.258  0.00  0.00    -0.241 OA
ENDBRANCH   3  22
TORSDOF 7
ENDMDL
