MODEL 1
REMARK VINA RESULT:      -4.9      0.000      0.000
REMARK  7 active torsions:
REMARK  status: ('A' for Active; 'I' for Inactive)
REMARK    1  A    between atoms: C_2  and  C_3 
REMARK    2  A    between atoms: C_3  and  O_6 
REMARK    3  A    between atoms: C_3  and  C_4 
REMARK    4  A    between atoms: C_7  and  O_6 
REMARK    5  A    between atoms: C_9  and  C_10 
REMARK    6  A    between atoms: N_15  and  C_14 
REMARK    7  A    between atoms: N_20  and  C_19 
REMARK       I    between atoms: C_22  and  N_20 
ROOT
ATOM      1  C   LIG d   1      -6.210  92.515 118.749  0.00  0.00     0.161 C 
ATOM      2  C   LIG d   1      -6.059  91.411 117.894  0.00  0.00     0.016 C 
ATOM      3  C   LIG d   1      -6.547  91.382 116.567  0.00  0.00     0.038 C 
ATOM      4  C   LIG d   1      -7.091  92.519 115.952  0.00  0.00     0.028 C 
ATOM      5  C   LIG d   1      -7.721  93.498 116.938  0.00  0.00    -0.047 C 
ATOM      6  C   LIG d   1      -6.703  93.804 118.060  0.00  0.00     0.091 C 
ENDROOT
BRANCH   1   7
ATOM      7  O   LIG d   1      -4.976  92.762 119.451  0.00  0.00    -0.368 OA
BRANCH   7   8
ATOM      8  C   LIG d   1      -3.960  93.489 118.718  0.00  0.00     0.119 C 
BRANCH   8   9
ATOM      9  C   LIG d   1      -2.700  92.603 118.670  0.00  0.00     0.028 C 
ATOM     10  C   LIG d   1      -2.749  91.458 119.695  0.00  0.00     0.006 C 
ENDBRANCH   8   9
BRANCH   8  11
ATOM     11  C   LIG d   1      -3.535  94.758 119.463  0.00  0.00     0.028 C 
ATOM     12  C   LIG d   1      -4.071  94.811 120.903  0.00  0.00     0.006 C 
ENDBRANCH   8  11
ENDBRANCH   7   8
ENDBRANCH   1   7
BRANCH   6  13
ATOM     13  N   LIG d   1      -7.268  94.689 119.113  0.00  0.00    -0.311 N 
ATOM     14  C   LIG d   1      -7.136  96.014 119.105  0.00  0.00     0.210 C 
ATOM     15  C   LIG d   1      -7.778  96.734 120.295  0.00  0.00     0.109 C 
ATOM     16  O   LIG d   1      -6.576  96.664 118.210  0.00  0.00    -0.276 OA
ATOM     17  H   LIG d   1      -7.766  94.247 119.861  0.00  0.00     0.149 HD
ENDBRANCH   6  13
BRANCH   5  18
ATOM     18  N   LIG d   1      -8.124  94.697 116.180  0.00  0.00     0.381 N 
ATOM     19  H   LIG d   1      -7.358  95.339 116.129  0.00  0.00    -0.090 HD
ATOM     20  H   LIG d   1      -8.881  95.148 116.663  0.00  0.00    -0.090 HD
ATOM     21  H   LIG d   1      -8.413  94.439 115.262  0.00  0.00    -0.090 HD
ENDBRANCH   5  18
BRANCH   3  22
ATOM     22  C   LIG d   1      -6.529  90.193 115.854  0.00  0.00     0.382 C 
ATOM     23  O   LIG d   1      -7.595  89.556 115.671  0.00  0.00    -0.241 OA
ATOM     24  O   LIG d   1      -5.455  89.726 115.430  0.00  0.00    -0.241 OA
ENDBRANCH   3  22
TORSDOF 7
ENDMDL
MODEL 2
REMARK VINA RESULT:      -4.7      2.778      4.633
REMARK  7 active torsions:
REMARK  status: ('A' for Active; 'I' for Inactive)
REMARK    1  A    between atoms: C_2  and  C_3 
REMARK    2  A    between atoms: C_3  and  O_6 
REMARK    3  A    between atoms: C_3  and  C_4 
REMARK    4  A    between atoms: C_7  and  O_6 
REMARK    5  A    between atoms: C_9  and  C_10 
REMARK    6  A    between atoms: N_15  and  C_14 
REMARK    7  A    between atoms: N_20  and  C_19 
REMARK       I    between atoms: C_22  and  N_20 
ROOT
ATOM      1  C   LIG d   1      -5.062  92.515 118.777  0.00  0.00     0.161 C 
ATOM      2  C   LIG d   1      -6.280  93.214 118.765  0.00  0.00     0.016 C 
ATOM      3  C   LIG d   1      -7.325  92.940 117.852  0.00  0.00     0.038 C 
ATOM      4  C   LIG d   1      -7.280  91.841 116.981  0.00  0.00     0.028 C 
ATOM      5  C   LIG d   1      -5.862  91.419 116.612  0.00  0.00    -0.047 C 
ATOM      6  C   LIG d   1      -5.038  91.240 117.908  0.00  0.00     0.091 C 
ENDROOT
BRANCH   1   7
ATOM      7  O   LIG d   1      -4.691  92.203 120.134  0.00  0.00    -0.368 OA
BRANCH   7   8
ATOM      8  C   LIG d   1      -3.642  93.019 120.712  0.00  0.00     0.119 C 
BRANCH   8   9
ATOM      9  C   LIG d   1      -2.874  93.677 119.549  0.00  0.00     0.028 C 
ATOM     10  C   LIG d   1      -1.408  93.217 119.480  0.00  0.00     0.006 C 
ENDBRANCH   8   9
BRANCH   8  11
ATOM     11  C   LIG d   1      -2.608  92.159 121.446  0.00  0.00     0.028 C 
ATOM     12  C   LIG d   1      -3.181  90.815 121.921  0.00  0.00     0.006 C 
ENDBRANCH   8  11
ENDBRANCH   7   8
ENDBRANCH   1   7
BRANCH   6  13
ATOM     13  N   LIG d   1      -3.616  90.908 117.634  0.00  0.00    -0.311 N 
ATOM     14  C   LIG d   1      -2.988  89.866 118.177  0.00  0.00     0.210 C 
ATOM     15  C   LIG d   1      -1.517  89.717 117.776  0.00  0.00     0.109 C 
ATOM     16  O   LIG d   1      -3.519  89.033 118.926  0.00  0.00    -0.276 OA
ATOM     17  H   LIG d   1      -3.118  91.515 117.012  0.00  0.00     0.149 HD
ENDBRANCH   6  13
BRANCH   5  18
ATOM     18  N   LIG d   1      -5.959  90.182 115.814  0.00  0.00     0.381 N 
ATOM     19  H   LIG d   1      -6.794  89.687 116.057  0.00  0.00    -0.090 HD
ATOM     20  H   LIG d   1      -5.172  89.595 116.027  0.00  0.00    -0.090 HD
ATOM     21  H   LIG d   1      -5.966  90.403 114.843  0.00  0.00    -0.090 HD
ENDBRANCH   5  18
BRANCH   3  22
ATOM     22  C   LIG d   1      -8.413  93.796 117.777  0.00  0.00     0.382 C 
ATOM     23  O   LIG d   1      -9.181  93.922 118.761  0.00  0.00    -0.241 OA
ATOM     24  O   LIG d   1      -8.663  94.410 116.722  0.00  0.00    -0.241 OA
ENDBRANCH   3  22
TORSDOF 7
ENDMDL
MODEL 3
REMARK VINA RESULT:      -4.7      2.571      4.554
REMARK  7 active torsions:
REMARK  status: ('A' for Active; 'I' for Inactive)
REMARK    1  A    between atoms: C_2  and  C_3 
REMARK    2  A    between atoms: C_3  and  O_6 
REMARK    3  A    between atoms: C_3  and  C_4 
REMARK    4  A    between atoms: C_7  and  O_6 
REMARK    5  A    between atoms: C_9  and  C_10 
REMARK    6  A    between atoms: N_15  and  C_14 
REMARK    7  A    between atoms: N_20  and  C_19 
REMARK       I    between atoms: C_22  and  N_20 
ROOT
ATOM      1  C   LIG d   1      -4.575  93.704 118.261  0.00  0.00     0.161 C 
ATOM      2  C   LIG d   1      -5.701  94.512 118.029  0.00  0.00     0.016 C 
ATOM      3  C   LIG d   1      -6.861  94.057 117.362  0.00  0.00     0.038 C 
ATOM      4  C   LIG d   1      -7.035  92.710 117.012  0.00  0.00     0.028 C 
ATOM      5  C   LIG d   1      -5.723  91.972 116.774  0.00  0.00    -0.047 C 
ATOM      6  C   LIG d   1      -4.791  92.201 117.985  0.00  0.00     0.091 C 
ENDROOT
BRANCH   1   7
ATOM      7  O   LIG d   1      -4.099  93.903 119.607  0.00  0.00    -0.368 OA
BRANCH   7   8
ATOM      8  C   LIG d   1      -2.832  94.594 119.739  0.00  0.00     0.119 C 
BRANCH   8   9
ATOM      9  C   LIG d   1      -1.847  93.626 120.422  0.00  0.00     0.028 C 
ATOM     10  C   LIG d   1      -0.637  93.295 119.531  0.00  0.00     0.006 C 
ENDBRANCH   8   9
BRANCH   8  11
ATOM     11  C   LIG d   1      -2.947  95.791 120.687  0.00  0.00     0.028 C 
ATOM     12  C   LIG d   1      -3.415  97.071 119.976  0.00  0.00     0.006 C 
ENDBRANCH   8  11
ENDBRANCH   7   8
ENDBRANCH   1   7
BRANCH   6  13
ATOM     13  N   LIG d   1      -3.453  91.582 117.796  0.00  0.00    -0.311 N 
ATOM     14  C   LIG d   1      -3.144  90.359 118.223  0.00  0.00     0.210 C 
ATOM     15  C   LIG d   1      -1.703  89.921 117.943  0.00  0.00     0.109 C 
ATOM     16  O   LIG d   1      -3.936  89.582 118.777  0.00  0.00    -0.276 OA
ATOM     17  H   LIG d   1      -2.758  92.131 117.328  0.00  0.00     0.149 HD
ENDBRANCH   6  13
BRANCH   5  18
ATOM     18  N   LIG d   1      -6.045  90.549 116.553  0.00  0.00     0.381 N 
ATOM     19  H   LIG d   1      -5.983  90.335 115.578  0.00  0.00    -0.090 HD
ATOM     20  H   LIG d   1      -6.989  90.379 116.854  0.00  0.00    -0.090 HD
ATOM     21  H   LIG d   1      -5.416  89.973 117.068  0.00  0.00    -0.090 HD
ENDBRANCH   5  18
BRANCH   3  22
ATOM     22  C   LIG d   1      -7.847  94.964 117.002  0.00  0.00     0.382 C 
ATOM     23  O   LIG d   1      -7.690  96.186 117.238  0.00  0.00    -0.241 OA
ATOM     24  O   LIG d   1      -8.909  94.570 116.485  0.00  0.00    -0.241 OA
ENDBRANCH   3  22
TORSDOF 7
ENDMDL
MODEL 4
REMARK VINA RESULT:      -4.6      2.577      4.174
REMARK  7 active torsions:
REMARK  status: ('A' for Active; 'I' for Inactive)
REMARK    1  A    between atoms: C_2  and  C_3 
REMARK    2  A    between atoms: C_3  and  O_6 
REMARK    3  A    between atoms: C_3  and  C_4 
REMARK    4  A    between atoms: C_7  and  O_6 
REMARK    5  A    between atoms: C_9  and  C_10 
REMARK    6  A    between atoms: N_15  and  C_14 
REMARK    7  A    between atoms: N_20  and  C_19 
REMARK       I    between atoms: C_22  and  N_20 
ROOT
ATOM      1  C   LIG d   1      -4.142  91.202 118.676  0.00  0.00     0.161 C 
ATOM      2  C   LIG d   1      -5.067  90.690 117.751  0.00  0.00     0.016 C 
ATOM      3  C   LIG d   1      -5.886  91.505 116.937  0.00  0.00     0.038 C 
ATOM      4  C   LIG d   1      -5.727  92.898 116.883  0.00  0.00     0.028 C 
ATOM      5  C   LIG d   1      -5.156  93.492 118.166  0.00  0.00    -0.047 C 
ATOM      6  C   LIG d   1      -3.875  92.717 118.551  0.00  0.00     0.091 C 
ENDROOT
BRANCH   1   7
ATOM      7  O   LIG d   1      -2.905  90.467 118.588  0.00  0.00    -0.368 OA
BRANCH   7   8
ATOM      8  C   LIG d   1      -2.783  89.320 119.465  0.00  0.00     0.119 C 
BRANCH   8   9
ATOM      9  C   LIG d   1      -1.745  89.674 120.548  0.00  0.00     0.028 C 
ATOM     10  C   LIG d   1      -2.400  90.128 121.863  0.00  0.00     0.006 C 
ENDBRANCH   8   9
BRANCH   8  11
ATOM     11  C   LIG d   1      -2.201  88.112 118.725  0.00  0.00     0.028 C 
ATOM     12  C   LIG d   1      -1.052  88.491 117.777  0.00  0.00     0.006 C 
ENDBRANCH   8  11
ENDBRANCH   7   8
ENDBRANCH   1   7
BRANCH   6  13
ATOM     13  N   LIG d   1      -3.299  93.180 119.841  0.00  0.00    -0.311 N 
ATOM     14  C   LIG d   1      -1.998  93.392 120.029  0.00  0.00     0.210 C 
ATOM     15  C   LIG d   1      -1.613  93.847 121.440  0.00  0.00     0.109 C 
ATOM     16  O   LIG d   1      -1.129  93.277 119.151  0.00  0.00    -0.276 OA
ATOM     17  H   LIG d   1      -3.937  93.328 120.598  0.00  0.00     0.149 HD
ENDBRANCH   6  13
BRANCH   5  18
ATOM     18  N   LIG d   1      -4.913  94.926 117.923  0.00  0.00     0.381 N 
ATOM     19  H   LIG d   1      -4.053  95.202 118.355  0.00  0.00    -0.090 HD
ATOM     20  H   LIG d   1      -5.658  95.457 118.338  0.00  0.00    -0.090 HD
ATOM     21  H   LIG d   1      -4.874  95.105 116.944  0.00  0.00    -0.090 HD
ENDBRANCH   5  18
BRANCH   3  22
ATOM     22  C   LIG d   1      -6.906  90.930 116.193  0.00  0.00     0.382 C 
ATOM     23  O   LIG d   1      -7.103  89.692 116.253  0.00  0.00    -0.241 OA
ATOM     24  O   LIG d   1      -7.602  91.626 115.430  0.00  0.00    -0.241 OA
ENDBRANCH   3  22
TORSDOF 7
ENDMDL
MODEL 5
REMARK VINA RESULT:      -4.5      2.204      4.114
REMARK  7 active torsions:
REMARK  status: ('A' for Active; 'I' for Inactive)
REMARK    1  A    between atoms: C_2  and  C_3 
REMARK    2  A    between atoms: C_3  and  O_6 
REMARK    3  A    between atoms: C_3  and  C_4 
REMARK    4  A    between atoms: C_7  and  O_6 
REMARK    5  A    between atoms: C_9  and  C_10 
REMARK    6  A    between atoms: N_15  and  C_14 
REMARK    7  A    between atoms: N_20  and  C_19 
REMARK       I    between atoms: C_22  and  N_20 
ROOT
ATOM      1  C   LIG d   1      -5.002  93.808 117.679  0.00  0.00     0.161 C 
ATOM      2  C   LIG d   1      -5.915  93.043 116.933  0.00  0.00     0.016 C 
ATOM      3  C   LIG d   1      -6.074  91.648 117.093  0.00  0.00     0.038 C 
ATOM      4  C   LIG d   1      -5.435  90.941 118.122  0.00  0.00     0.028 C 
ATOM      5  C   LIG d   1      -4.125  91.580 118.572  0.00  0.00    -0.047 C 
ATOM      6  C   LIG d   1      -4.376  93.074 118.883  0.00  0.00     0.091 C 
ENDROOT
BRANCH   1   7
ATOM      7  O   LIG d   1      -5.628  95.033 118.109  0.00  0.00    -0.368 OA
BRANCH   7   8
ATOM      8  C   LIG d   1      -6.614  94.909 119.163  0.00  0.00     0.119 C 
BRANCH   8   9
ATOM      9  C   LIG d   1      -7.917  95.557 118.657  0.00  0.00     0.028 C 
ATOM     10  C   LIG d   1      -7.722  96.307 117.328  0.00  0.00     0.006 C 
ENDBRANCH   8   9
BRANCH   8  11
ATOM     11  C   LIG d   1      -6.213  95.717 120.400  0.00  0.00     0.028 C 
ATOM     12  C   LIG d   1      -5.162  96.796 120.092  0.00  0.00     0.006 C 
ENDBRANCH   8  11
ENDBRANCH   7   8
ENDBRANCH   1   7
BRANCH   6  13
ATOM     13  N   LIG d   1      -3.128  93.794 119.249  0.00  0.00    -0.311 N 
ATOM     14  C   LIG d   1      -2.747  94.005 120.508  0.00  0.00     0.210 C 
ATOM     15  C   LIG d   1      -1.438  94.785 120.664  0.00  0.00     0.109 C 
ATOM     16  O   LIG d   1      -3.351  93.591 121.509  0.00  0.00    -0.276 OA
ATOM     17  H   LIG d   1      -2.562  94.136 118.498  0.00  0.00     0.149 HD
ENDBRANCH   6  13
BRANCH   5  18
ATOM     18  N   LIG d   1      -3.636  90.821 119.738  0.00  0.00     0.381 N 
ATOM     19  H   LIG d   1      -4.009  91.215 120.579  0.00  0.00    -0.090 HD
ATOM     20  H   LIG d   1      -2.635  90.890 119.775  0.00  0.00    -0.090 HD
ATOM     21  H   LIG d   1      -3.908  89.866 119.662  0.00  0.00    -0.090 HD
ENDBRANCH   5  18
BRANCH   3  22
ATOM     22  C   LIG d   1      -6.851  90.937 116.190  0.00  0.00     0.382 C 
ATOM     23  O   LIG d   1      -7.643  91.545 115.430  0.00  0.00    -0.241 OA
ATOM     24  O   LIG d   1      -6.803  89.693 116.158  0.00  0.00    -0.241 OA
ENDBRANCH   3  22
TORSDOF 7
ENDMDL
MODEL 6
REMARK VINA RESULT:      -4.5      2.668      5.081
REMARK  7 active torsions:
REMARK  status: ('A' for Active; 'I' for Inactive)
REMARK    1  A    between atoms: C_2  and  C_3 
REMARK    2  A    between atoms: C_3  and  O_6 
REMARK    3  A    between atoms: C_3  and  C_4 
REMARK    4  A    between atoms: C_7  and  O_6 
REMARK    5  A    between atoms: C_9  and  C_10 
REMARK    6  A    between atoms: N_15  and  C_14 
REMARK    7  A    between atoms: N_20  and  C_19 
REMARK       I    between atoms: C_22  and  N_20 
ROOT
ATOM      1  C   LIG d   1      -6.007  92.529 119.066  0.00  0.00     0.161 C 
ATOM      2  C   LIG d   1      -7.384  92.536 119.346  0.00  0.00     0.016 C 
ATOM      3  C   LIG d   1      -7.966  93.319 120.369  0.00  0.00     0.038 C 
ATOM      4  C   LIG d   1      -7.225  94.270 121.087  0.00  0.00     0.028 C 
ATOM      5  C   LIG d   1      -5.741  93.936 121.183  0.00  0.00    -0.047 C 
ATOM      6  C   LIG d   1      -5.200  93.643 119.765  0.00  0.00     0.091 C 
ENDROOT
BRANCH   1   7
ATOM      7  O   LIG d   1      -5.799  92.578 117.641  0.00  0.00    -0.368 OA
BRANCH   7   8
ATOM      8  C   LIG d   1      -6.994  92.583 116.821  0.00  0.00     0.119 C 
BRANCH   8   9
ATOM      9  C   LIG d   1      -6.784  91.557 115.690  0.00  0.00     0.028 C 
ATOM     10  C   LIG d   1      -7.324  90.164 116.054  0.00  0.00     0.006 C 
ENDBRANCH   8   9
BRANCH   8  11
ATOM     11  C   LIG d   1      -7.181  93.930 116.118  0.00  0.00     0.028 C 
ATOM     12  C   LIG d   1      -8.153  94.860 116.861  0.00  0.00     0.006 C 
ENDBRANCH   8  11
ENDBRANCH   7   8
ENDBRANCH   1   7
BRANCH   6  13
ATOM     13  N   LIG d   1      -3.774  93.225 119.777  0.00  0.00    -0.311 N 
ATOM     14  C   LIG d   1      -2.757  94.081 119.687  0.00  0.00     0.210 C 
ATOM     15  C   LIG d   1      -1.367  93.438 119.699  0.00  0.00     0.109 C 
ATOM     16  O   LIG d   1      -2.875  95.315 119.632  0.00  0.00    -0.276 OA
ATOM     17  H   LIG d   1      -3.587  92.244 119.851  0.00  0.00     0.149 HD
ENDBRANCH   6  13
BRANCH   5  18
ATOM     18  N   LIG d   1      -5.068  95.075 121.835  0.00  0.00     0.381 N 
ATOM     19  H   LIG d   1      -5.740  95.629 122.327  0.00  0.00    -0.090 HD
ATOM     20  H   LIG d   1      -4.644  95.650 121.128  0.00  0.00    -0.090 HD
ATOM     21  H   LIG d   1      -4.372  94.744 122.466  0.00  0.00    -0.090 HD
ENDBRANCH   5  18
BRANCH   3  22
ATOM     22  C   LIG d   1      -9.296  93.126 120.710  0.00  0.00     0.382 C 
ATOM     23  O   LIG d   1     -10.191  93.256 119.840  0.00  0.00    -0.241 OA
ATOM     24  O   LIG d   1      -9.616  92.867 121.886  0.00  0.00    -0.241 OA
ENDBRANCH   3  22
TORSDOF 7
ENDMDL
MODEL 7
REMARK VINA RESULT:      -4.3      3.071      5.778
REMARK  7 active torsions:
REMARK  status: ('A' for Active; 'I' for Inactive)
REMARK    1  A    between atoms: C_2  and  C_3 
REMARK    2  A    between atoms: C_3  and  O_6 
REMARK    3  A    between atoms: C_3  and  C_4 
REMARK    4  A    between atoms: C_7  and  O_6 
REMARK    5  A    between atoms: C_9  and  C_10 
REMARK    6  A    between atoms: N_15  and  C_14 
REMARK    7  A    between atoms: N_20  and  C_19 
REMARK       I    between atoms: C_22  and  N_20 
ROOT
ATOM      1  C   LIG d   1      -5.105  91.468 118.362  0.00  0.00     0.161 C 
ATOM      2  C   LIG d   1      -6.211  91.679 119.201  0.00  0.00     0.016 C 
ATOM      3  C   LIG d   1      -6.097  91.971 120.580  0.00  0.00     0.038 C 
ATOM      4  C   LIG d   1      -4.857  92.221 121.185  0.00  0.00     0.028 C 
ATOM      5  C   LIG d   1      -3.692  91.523 120.490  0.00  0.00    -0.047 C 
ATOM      6  C   LIG d   1      -3.742  91.846 118.979  0.00  0.00     0.091 C 
ENDROOT
BRANCH   1   7
ATOM      7  O   LIG d   1      -5.299  92.162 117.113  0.00  0.00    -0.368 OA
BRANCH   7   8
ATOM      8  C   LIG d   1      -6.647  92.154 116.583  0.00  0.00     0.119 C 
BRANCH   8   9
ATOM      9  C   LIG d   1      -6.727  91.026 115.537  0.00  0.00     0.028 C 
ATOM     10  C   LIG d   1      -7.695  89.906 115.954  0.00  0.00     0.006 C 
ENDBRANCH   8   9
BRANCH   8  11
ATOM     11  C   LIG d   1      -6.950  93.443 115.813  0.00  0.00     0.028 C 
ATOM     12  C   LIG d   1      -7.376  94.600 116.731  0.00  0.00     0.006 C 
ENDBRANCH   8  11
ENDBRANCH   7   8
ENDBRANCH   1   7
BRANCH   6  13
ATOM     13  N   LIG d   1      -2.687  91.135 118.212  0.00  0.00    -0.311 N 
ATOM     14  C   LIG d   1      -1.462  91.623 118.024  0.00  0.00     0.210 C 
ATOM     15  C   LIG d   1      -0.535  90.737 117.186  0.00  0.00     0.109 C 
ATOM     16  O   LIG d   1      -1.046  92.690 118.498  0.00  0.00    -0.276 OA
ATOM     17  H   LIG d   1      -2.930  90.247 117.818  0.00  0.00     0.149 HD
ENDBRANCH   6  13
BRANCH   5  18
ATOM     18  N   LIG d   1      -2.448  91.980 121.138  0.00  0.00     0.381 N 
ATOM     19  H   LIG d   1      -2.543  91.922 122.133  0.00  0.00    -0.090 HD
ATOM     20  H   LIG d   1      -2.287  92.941 120.892  0.00  0.00    -0.090 HD
ATOM     21  H   LIG d   1      -1.681  91.419 120.837  0.00  0.00    -0.090 HD
ENDBRANCH   5  18
BRANCH   3  22
ATOM     22  C   LIG d   1      -7.232  91.975 121.377  0.00  0.00     0.382 C 
ATOM     23  O   LIG d   1      -8.196  92.724 121.092  0.00  0.00    -0.241 OA
ATOM     24  O   LIG d   1      -7.285  91.271 122.404  0.00  0.00    -0.241 OA
ENDBRANCH   3  22
TORSDOF 7
ENDMDL
MODEL 8
REMARK VINA RESULT:      -4.3      2.403      5.455
REMARK  7 active torsions:
REMARK  status: ('A' for Active; 'I' for Inactive)
REMARK    1  A    between atoms: C_2  and  C_3 
REMARK    2  A    between atoms: C_3  and  O_6 
REMARK    3  A    between atoms: C_3  and  C_4 
REMARK    4  A    between atoms: C_7  and  O_6 
REMARK    5  A    between atoms: C_9  and  C_10 
REMARK    6  A    between atoms: N_15  and  C_14 
REMARK    7  A    between atoms: N_20  and  C_19 
REMARK       I    between atoms: C_22  and  N_20 
ROOT
ATOM      1  C   LIG d   1      -6.025  92.019 119.541  0.00  0.00     0.161 C 
ATOM      2  C   LIG d   1      -5.015  92.405 120.438  0.00  0.00     0.016 C 
ATOM      3  C   LIG d   1      -3.652  92.072 120.266  0.00  0.00     0.038 C 
ATOM      4  C   LIG d   1      -3.181  91.455 119.097  0.00  0.00     0.028 C 
ATOM      5  C   LIG d   1      -4.233  90.601 118.397  0.00  0.00    -0.047 C 
ATOM      6  C   LIG d   1      -5.515  91.442 118.204  0.00  0.00     0.091 C 
ENDROOT
BRANCH   1   7
ATOM      7  O   LIG d   1      -6.915  93.127 119.302  0.00  0.00    -0.368 OA
BRANCH   7   8
ATOM      8  C   LIG d   1      -6.308  94.328 118.764  0.00  0.00     0.119 C 
BRANCH   8   9
ATOM      9  C   LIG d   1      -6.954  95.532 119.478  0.00  0.00     0.028 C 
ATOM     10  C   LIG d   1      -7.526  95.160 120.856  0.00  0.00     0.006 C 
ENDBRANCH   8   9
BRANCH   8  11
ATOM     11  C   LIG d   1      -6.645  94.507 117.281  0.00  0.00     0.028 C 
ATOM     12  C   LIG d   1      -8.157  94.589 117.019  0.00  0.00     0.006 C 
ENDBRANCH   8  11
ENDBRANCH   7   8
ENDBRANCH   1   7
BRANCH   6  13
ATOM     13  N   LIG d   1      -6.624  90.655 117.602  0.00  0.00    -0.311 N 
ATOM     14  C   LIG d   1      -6.876  90.625 116.295  0.00  0.00     0.210 C 
ATOM     15  C   LIG d   1      -8.078  89.767 115.888  0.00  0.00     0.109 C 
ATOM     16  O   LIG d   1      -6.198  91.202 115.430  0.00  0.00    -0.276 OA
ATOM     17  H   LIG d   1      -7.204  90.133 118.228  0.00  0.00     0.149 HD
ENDBRANCH   6  13
BRANCH   5  18
ATOM     18  N   LIG d   1      -3.652  90.131 117.126  0.00  0.00     0.381 N 
ATOM     19  H   LIG d   1      -3.587  90.893 116.481  0.00  0.00    -0.090 HD
ATOM     20  H   LIG d   1      -4.257  89.434 116.729  0.00  0.00    -0.090 HD
ATOM     21  H   LIG d   1      -2.748  89.744 117.286  0.00  0.00    -0.090 HD
ENDBRANCH   5  18
BRANCH   3  22
ATOM     22  C   LIG d   1      -2.748  92.321 121.288  0.00  0.00     0.382 C 
ATOM     23  O   LIG d   1      -2.103  93.397 121.306  0.00  0.00    -0.241 OA
ATOM     24  O   LIG d   1      -2.538  91.465 122.168  0.00  0.00    -0.241 OA
ENDBRANCH   3  22
TORSDOF 7
ENDMDL
MODEL 9
REMARK VINA RESULT:      -4.2      1.843      4.553
REMARK  7 active torsions:
REMARK  status: ('A' for Active; 'I' for Inactive)
REMARK    1  A    between atoms: C_2  and  C_3 
REMARK    2  A    between atoms: C_3  and  O_6 
REMARK    3  A    between atoms: C_3  and  C_4 
REMARK    4  A    between atoms: C_7  and  O_6 
REMARK    5  A    between atoms: C_9  and  C_10 
REMARK    6  A    between atoms: N_15  and  C_14 
REMARK    7  A    between atoms: N_20  and  C_19 
REMARK       I    between atoms: C_22  and  N_20 
ROOT
ATOM      1  C   LIG d   1      -5.390  92.995 117.743  0.00  0.00     0.161 C 
ATOM      2  C   LIG d   1      -5.171  94.356 118.015  0.00  0.00     0.016 C 
ATOM      3  C   LIG d   1      -6.132  95.190 118.633  0.00  0.00     0.038 C 
ATOM      4  C   LIG d   1      -7.327  94.680 119.161  0.00  0.00     0.028 C 
ATOM      5  C   LIG d   1      -7.806  93.413 118.460  0.00  0.00    -0.047 C 
ATOM      6  C   LIG d   1      -6.644  92.395 118.412  0.00  0.00     0.091 C 
ENDROOT
BRANCH   1   7
ATOM      7  O   LIG d   1      -4.219  92.233 118.098  0.00  0.00    -0.368 OA
BRANCH   7   8
ATOM      8  C   LIG d   1      -3.354  92.821 119.100  0.00  0.00     0.119 C 
BRANCH   8   9
ATOM      9  C   LIG d   1      -1.899  92.555 118.669  0.00  0.00     0.028 C 
ATOM     10  C   LIG d   1      -1.294  91.328 119.371  0.00  0.00     0.006 C 
ENDBRANCH   8   9
BRANCH   8  11
ATOM     11  C   LIG d   1      -3.511  92.121 120.453  0.00  0.00     0.028 C 
ATOM     12  C   LIG d   1      -4.425  92.890 121.420  0.00  0.00     0.006 C 
ENDBRANCH   8  11
ENDBRANCH   7   8
ENDBRANCH   1   7
BRANCH   6  13
ATOM     13  N   LIG d   1      -7.002  91.159 117.669  0.00  0.00    -0.311 N 
ATOM     14  C   LIG d   1      -7.378  91.156 116.391  0.00  0.00     0.210 C 
ATOM     15  C   LIG d   1      -7.723  89.775 115.823  0.00  0.00     0.109 C 
ATOM     16  O   LIG d   1      -7.427  92.160 115.665  0.00  0.00    -0.276 OA
ATOM     17  H   LIG d   1      -6.960  90.295 118.173  0.00  0.00     0.149 HD
ENDBRANCH   6  13
BRANCH   5  18
ATOM     18  N   LIG d   1      -8.982  92.913 119.198  0.00  0.00     0.381 N 
ATOM     19  H   LIG d   1      -9.702  93.608 119.199  0.00  0.00    -0.090 HD
ATOM     20  H   LIG d   1      -8.716  92.733 120.150  0.00  0.00    -0.090 HD
ATOM     21  H   LIG d   1      -9.319  92.076 118.776  0.00  0.00    -0.090 HD
ENDBRANCH   5  18
BRANCH   3  22
ATOM     22  C   LIG d   1      -5.918  96.559 118.691  0.00  0.00     0.382 C 
ATOM     23  O   LIG d   1      -5.021  97.022 119.437  0.00  0.00    -0.241 OA
ATOM     24  O   LIG d   1      -6.638  97.339 118.041  0.00  0.00    -0.241 OA
ENDBRANCH   3  22
TORSDOF 7
ENDMDL
