MODEL 1
REMARK VINA RESULT:      -5.3      0.000      0.000
REMARK  7 active torsions:
REMARK  status: ('A' for Active; 'I' for Inactive)
REMARK    1  A    between atoms: C_2  and  C_3 
REMARK    2  A    between atoms: C_3  and  O_6 
REMARK    3  A    between atoms: C_3  and  C_4 
REMARK    4  A    between atoms: C_7  and  O_6 
REMARK    5  A    between atoms: C_9  and  C_10 
REMARK    6  A    between atoms: N_15  and  C_14 
REMARK    7  A    between atoms: N_20  and  C_19 
REMARK       I    between atoms: C_22  and  N_20 
ROOT
ATOM      1  C   LIG d   1      -5.274  92.381 118.579  0.00  0.00     0.161 C 
ATOM      2  C   LIG d   1      -5.708  91.510 117.566  0.00  0.00     0.016 C 
ATOM      3  C   LIG d   1      -6.750  91.823 116.664  0.00  0.00     0.038 C 
ATOM      4  C   LIG d   1      -7.332  93.099 116.617  0.00  0.00     0.028 C 
ATOM      5  C   LIG d   1      -7.275  93.839 117.949  0.00  0.00    -0.047 C 
ATOM      6  C   LIG d   1      -5.821  93.820 118.473  0.00  0.00     0.091 C 
ENDROOT
BRANCH   1   7
ATOM      7  O   LIG d   1      -3.834  92.395 118.629  0.00  0.00    -0.368 OA
BRANCH   7   8
ATOM      8  C   LIG d   1      -3.212  91.347 119.412  0.00  0.00     0.119 C 
BRANCH   8   9
ATOM      9  C   LIG d   1      -2.284  92.024 120.438  0.00  0.00     0.028 C 
ATOM     10  C   LIG d   1      -2.243  93.552 120.274  0.00  0.00     0.006 C 
ENDBRANCH   8   9
BRANCH   8  11
ATOM     11  C   LIG d   1      -2.295  90.475 118.548  0.00  0.00     0.028 C 
ATOM     12  C   LIG d   1      -2.893  89.090 118.255  0.00  0.00     0.006 C 
ENDBRANCH   8  11
ENDBRANCH   7   8
ENDBRANCH   1   7
BRANCH   6  13
ATOM     13  N   LIG d   1      -5.693  94.451 119.812  0.00  0.00    -0.311 N 
ATOM     14  C   LIG d   1      -5.370  95.730 119.993  0.00  0.00     0.210 C 
ATOM     15  C   LIG d   1      -5.272  96.172 121.456  0.00  0.00     0.109 C 
ATOM     16  O   LIG d   1      -5.186  96.548 119.079  0.00  0.00    -0.276 OA
ATOM     17  H   LIG d   1      -5.856  93.866 120.609  0.00  0.00     0.149 HD
ENDBRANCH   6  13
BRANCH   5  18
ATOM     18  N   LIG d   1      -7.790  95.203 117.722  0.00  0.00     0.381 N 
ATOM     19  H   LIG d   1      -7.318  95.848 118.324  0.00  0.00    -0.090 HD
ATOM     20  H   LIG d   1      -8.770  95.222 117.946  0.00  0.00    -0.090 HD
ATOM     21  H   LIG d   1      -7.654  95.465 116.771  0.00  0.00    -0.090 HD
ENDBRANCH   5  18
BRANCH   3  22
ATOM     22  C   LIG d   1      -7.248  90.841 115.822  0.00  0.00     0.382 C 
ATOM     23  O   LIG d   1      -8.450  90.871 115.465  0.00  0.00    -0.241 OA
ATOM     24  O   LIG d   1      -6.521  89.900 115.449  0.00  0.00    -0.241 OA
ENDBRANCH   3  22
TORSDOF 7
ENDMDL
MODEL 2
REMARK VINA RESULT:      -5.1      1.021      1.799
REMARK  7 active torsions:
REMARK  status: ('A' for Active; 'I' for Inactive)
REMARK    1  A    between atoms: C_2  and  C_3 
REMARK    2  A    between atoms: C_3  and  O_6 
REMARK    3  A    between atoms: C_3  and  C_4 
REMARK    4  A    between atoms: C_7  and  O_6 
REMARK    5  A    between atoms: C_9  and  C_10 
REMARK    6  A    between atoms: N_15  and  C_14 
REMARK    7  A    between atoms: N_20  and  C_19 
REMARK       I    between atoms: C_22  and  N_20 
ROOT
ATOM      1  C   LIG d   1      -5.559  92.797 118.337  0.00  0.00     0.161 C 
ATOM      2  C   LIG d   1      -5.868  91.816 117.380  0.00  0.00     0.016 C 
ATOM      3  C   LIG d   1      -7.016  91.868 116.556  0.00  0.00     0.038 C 
ATOM      4  C   LIG d   1      -7.859  92.989 116.528  0.00  0.00     0.028 C 
ATOM      5  C   LIG d   1      -7.866  93.775 117.835  0.00  0.00    -0.047 C 
ATOM      6  C   LIG d   1      -6.407  94.083 118.243  0.00  0.00     0.091 C 
ENDROOT
BRANCH   1   7
ATOM      7  O   LIG d   1      -4.155  93.117 118.272  0.00  0.00    -0.368 OA
BRANCH   7   8
ATOM      8  C   LIG d   1      -3.355  92.711 119.409  0.00  0.00     0.119 C 
BRANCH   8   9
ATOM      9  C   LIG d   1      -2.456  91.546 118.950  0.00  0.00     0.028 C 
ATOM     10  C   LIG d   1      -3.052  90.172 119.300  0.00  0.00     0.006 C 
ENDBRANCH   8   9
BRANCH   8  11
ATOM     11  C   LIG d   1      -4.228  92.133 120.527  0.00  0.00     0.028 C 
ATOM     12  C   LIG d   1      -4.104  92.915 121.844  0.00  0.00     0.006 C 
ENDBRANCH   8  11
ENDBRANCH   7   8
ENDBRANCH   1   7
BRANCH   6  13
ATOM     13  N   LIG d   1      -6.319  94.776 119.554  0.00  0.00    -0.311 N 
ATOM     14  C   LIG d   1      -6.307  96.102 119.683  0.00  0.00     0.210 C 
ATOM     15  C   LIG d   1      -6.191  96.610 121.124  0.00  0.00     0.109 C 
ATOM     16  O   LIG d   1      -6.413  96.905 118.744  0.00  0.00    -0.276 OA
ATOM     17  H   LIG d   1      -6.261  94.201 120.372  0.00  0.00     0.149 HD
ENDBRANCH   6  13
BRANCH   5  18
ATOM     18  N   LIG d   1      -8.675  94.989 117.621  0.00  0.00     0.381 N 
ATOM     19  H   LIG d   1      -9.478  94.970 118.217  0.00  0.00    -0.090 HD
ATOM     20  H   LIG d   1      -8.991  95.005 116.667  0.00  0.00    -0.090 HD
ATOM     21  H   LIG d   1      -8.129  95.800 117.812  0.00  0.00    -0.090 HD
ENDBRANCH   5  18
BRANCH   3  22
ATOM     22  C   LIG d   1      -7.353  90.771 115.777  0.00  0.00     0.382 C 
ATOM     23  O   LIG d   1      -8.545  90.589 115.433  0.00  0.00    -0.241 OA
ATOM     24  O   LIG d   1      -6.486  89.938 115.451  0.00  0.00    -0.241 OA
ENDBRANCH   3  22
TORSDOF 7
ENDMDL
MODEL 3
REMARK VINA RESULT:      -4.6      2.587      6.521
REMARK  7 active torsions:
REMARK  status: ('A' for Active; 'I' for Inactive)
REMARK    1  A    between atoms: C_2  and  C_3 
REMARK    2  A    between atoms: C_3  and  O_6 
REMARK    3  A    between atoms: C_3  and  C_4 
REMARK    4  A    between atoms: C_7  and  O_6 
REMARK    5  A    between atoms: C_9  and  C_10 
REMARK    6  A    between atoms: N_15  and  C_14 
REMARK    7  A    between atoms: N_20  and  C_19 
REMARK       I    between atoms: C_22  and  N_20 
ROOT
ATOM      1  C   LIG d   1      -6.668  93.753 118.997  0.00  0.00     0.161 C 
ATOM      2  C   LIG d   1      -5.923  94.578 119.857  0.00  0.00     0.016 C 
ATOM      3  C   LIG d   1      -4.541  94.403 120.097  0.00  0.00     0.038 C 
ATOM      4  C   LIG d   1      -3.773  93.479 119.373  0.00  0.00     0.028 C 
ATOM      5  C   LIG d   1      -4.579  92.289 118.865  0.00  0.00    -0.047 C 
ATOM      6  C   LIG d   1      -5.825  92.810 118.114  0.00  0.00     0.091 C 
ENDROOT
BRANCH   1   7
ATOM      7  O   LIG d   1      -7.539  94.560 118.180  0.00  0.00    -0.368 OA
BRANCH   7   8
ATOM      8  C   LIG d   1      -8.532  95.344 118.887  0.00  0.00     0.119 C 
BRANCH   8   9
ATOM      9  C   LIG d   1      -9.839  94.527 118.906  0.00  0.00     0.028 C 
ATOM     10  C   LIG d   1     -10.680  94.796 120.165  0.00  0.00     0.006 C 
ENDBRANCH   8   9
BRANCH   8  11
ATOM     11  C   LIG d   1      -8.869  96.631 118.129  0.00  0.00     0.028 C 
ATOM     12  C   LIG d   1      -7.619  97.423 117.713  0.00  0.00     0.006 C 
ENDBRANCH   8  11
ENDBRANCH   7   8
ENDBRANCH   1   7
BRANCH   6  13
ATOM     13  N   LIG d   1      -6.713  91.710 117.656  0.00  0.00    -0.311 N 
ATOM     14  C   LIG d   1      -7.043  91.516 116.380  0.00  0.00     0.210 C 
ATOM     15  C   LIG d   1      -7.986  90.336 116.128  0.00  0.00     0.109 C 
ATOM     16  O   LIG d   1      -6.618  92.190 115.430  0.00  0.00    -0.276 OA
ATOM     17  H   LIG d   1      -7.078  91.096 118.358  0.00  0.00     0.149 HD
ENDBRANCH   6  13
BRANCH   5  18
ATOM     18  N   LIG d   1      -3.688  91.478 118.013  0.00  0.00     0.381 N 
ATOM     19  H   LIG d   1      -3.249  90.766 118.562  0.00  0.00    -0.090 HD
ATOM     20  H   LIG d   1      -2.971  92.072 117.636  0.00  0.00    -0.090 HD
ATOM     21  H   LIG d   1      -4.209  91.063 117.273  0.00  0.00    -0.090 HD
ENDBRANCH   5  18
BRANCH   3  22
ATOM     22  C   LIG d   1      -3.921  95.132 121.101  0.00  0.00     0.382 C 
ATOM     23  O   LIG d   1      -2.882  95.788 120.848  0.00  0.00    -0.241 OA
ATOM     24  O   LIG d   1      -4.362  95.105 122.265  0.00  0.00    -0.241 OA
ENDBRANCH   3  22
TORSDOF 7
ENDMDL
MODEL 4
REMARK VINA RESULT:      -4.6      2.287      4.723
REMARK  7 active torsions:
REMARK  status: ('A' for Active; 'I' for Inactive)
REMARK    1  A    between atoms: C_2  and  C_3 
REMARK    2  A    between atoms: C_3  and  O_6 
REMARK    3  A    between atoms: C_3  and  C_4 
REMARK    4  A    between atoms: C_7  and  O_6 
REMARK    5  A    between atoms: C_9  and  C_10 
REMARK    6  A    between atoms: N_15  and  C_14 
REMARK    7  A    between atoms: N_20  and  C_19 
REMARK       I    between atoms: C_22  and  N_20 
ROOT
ATOM      1  C   LIG d   1      -6.821  93.923 118.476  0.00  0.00     0.161 C 
ATOM      2  C   LIG d   1      -7.448  93.004 117.618  0.00  0.00     0.016 C 
ATOM      3  C   LIG d   1      -6.791  91.882 117.065  0.00  0.00     0.038 C 
ATOM      4  C   LIG d   1      -5.494  91.515 117.455  0.00  0.00     0.028 C 
ATOM      5  C   LIG d   1      -4.649  92.693 117.930  0.00  0.00    -0.047 C 
ATOM      6  C   LIG d   1      -5.439  93.478 119.001  0.00  0.00     0.091 C 
ENDROOT
BRANCH   1   7
ATOM      7  O   LIG d   1      -7.696  94.241 119.577  0.00  0.00    -0.368 OA
BRANCH   7   8
ATOM      8  C   LIG d   1      -8.152  95.614 119.653  0.00  0.00     0.119 C 
BRANCH   8   9
ATOM      9  C   LIG d   1      -9.420  95.633 120.527  0.00  0.00     0.028 C 
ATOM     10  C   LIG d   1     -10.552  94.773 119.939  0.00  0.00     0.006 C 
ENDBRANCH   8   9
BRANCH   8  11
ATOM     11  C   LIG d   1      -8.597  96.130 118.281  0.00  0.00     0.028 C 
ATOM     12  C   LIG d   1      -7.876  97.422 117.868  0.00  0.00     0.006 C 
ENDBRANCH   8  11
ENDBRANCH   7   8
ENDBRANCH   1   7
BRANCH   6  13
ATOM     13  N   LIG d   1      -4.719  94.695 119.459  0.00  0.00    -0.311 N 
ATOM     14  C   LIG d   1      -4.386  94.915 120.729  0.00  0.00     0.210 C 
ATOM     15  C   LIG d   1      -3.665  96.242 120.988  0.00  0.00     0.109 C 
ATOM     16  O   LIG d   1      -4.591  94.124 121.662  0.00  0.00    -0.276 OA
ATOM     17  H   LIG d   1      -4.486  95.376 118.763  0.00  0.00     0.149 HD
ENDBRANCH   6  13
BRANCH   5  18
ATOM     18  N   LIG d   1      -3.373  92.151 118.435  0.00  0.00     0.381 N 
ATOM     19  H   LIG d   1      -2.969  92.789 119.090  0.00  0.00    -0.090 HD
ATOM     20  H   LIG d   1      -2.737  92.045 117.664  0.00  0.00    -0.090 HD
ATOM     21  H   LIG d   1      -3.526  91.268 118.871  0.00  0.00    -0.090 HD
ENDBRANCH   5  18
BRANCH   3  22
ATOM     22  C   LIG d   1      -7.418  91.135 116.080  0.00  0.00     0.382 C 
ATOM     23  O   LIG d   1      -7.001  89.984 115.804  0.00  0.00    -0.241 OA
ATOM     24  O   LIG d   1      -8.367  91.614 115.431  0.00  0.00    -0.241 OA
ENDBRANCH   3  22
TORSDOF 7
ENDMDL
MODEL 5
REMARK VINA RESULT:      -4.5      4.230      7.107
REMARK  7 active torsions:
REMARK  status: ('A' for Active; 'I' for Inactive)
REMARK    1  A    between atoms: C_2  and  C_3 
REMARK    2  A    between atoms: C_3  and  O_6 
REMARK    3  A    between atoms: C_3  and  C_4 
REMARK    4  A    between atoms: C_7  and  O_6 
REMARK    5  A    between atoms: C_9  and  C_10 
REMARK    6  A    between atoms: N_15  and  C_14 
REMARK    7  A    between atoms: N_20  and  C_19 
REMARK       I    between atoms: C_22  and  N_20 
ROOT
ATOM      1  C   LIG d   1      -0.134  91.069 116.954  0.00  0.00     0.161 C 
ATOM      2  C   LIG d   1       1.264  90.962 116.863  0.00  0.00     0.016 C 
ATOM      3  C   LIG d   1       2.156  91.719 117.657  0.00  0.00     0.038 C 
ATOM      4  C   LIG d   1       1.706  92.531 118.708  0.00  0.00     0.028 C 
ATOM      5  C   LIG d   1       0.289  93.056 118.504  0.00  0.00    -0.047 C 
ATOM      6  C   LIG d   1      -0.643  91.869 118.172  0.00  0.00     0.091 C 
ENDROOT
BRANCH   1   7
ATOM      7  O   LIG d   1      -0.728  89.756 116.933  0.00  0.00    -0.368 OA
BRANCH   7   8
ATOM      8  C   LIG d   1      -1.060  89.186 118.223  0.00  0.00     0.119 C 
BRANCH   8   9
ATOM      9  C   LIG d   1      -0.174  87.940 118.419  0.00  0.00     0.028 C 
ATOM     10  C   LIG d   1       0.290  87.333 117.085  0.00  0.00     0.006 C 
ENDBRANCH   8   9
BRANCH   8  11
ATOM     11  C   LIG d   1      -2.501  88.668 118.249  0.00  0.00     0.028 C 
ATOM     12  C   LIG d   1      -2.978  88.305 119.664  0.00  0.00     0.006 C 
ENDBRANCH   8  11
ENDBRANCH   7   8
ENDBRANCH   1   7
BRANCH   6  13
ATOM     13  N   LIG d   1      -2.033  92.304 117.875  0.00  0.00    -0.311 N 
ATOM     14  C   LIG d   1      -3.001  92.339 118.789  0.00  0.00     0.210 C 
ATOM     15  C   LIG d   1      -4.366  92.800 118.268  0.00  0.00     0.109 C 
ATOM     16  O   LIG d   1      -2.852  92.062 119.989  0.00  0.00    -0.276 OA
ATOM     17  H   LIG d   1      -2.234  92.576 116.933  0.00  0.00     0.149 HD
ENDBRANCH   6  13
BRANCH   5  18
ATOM     18  N   LIG d   1      -0.102  93.772 119.733  0.00  0.00     0.381 N 
ATOM     19  H   LIG d   1      -0.685  93.185 120.296  0.00  0.00    -0.090 HD
ATOM     20  H   LIG d   1      -0.629  94.589 119.480  0.00  0.00    -0.090 HD
ATOM     21  H   LIG d   1       0.709  94.037 120.247  0.00  0.00    -0.090 HD
ENDBRANCH   5  18
BRANCH   3  22
ATOM     22  C   LIG d   1       3.513  91.698 117.375  0.00  0.00     0.382 C 
ATOM     23  O   LIG d   1       3.933  91.100 116.355  0.00  0.00    -0.241 OA
ATOM     24  O   LIG d   1       4.328  92.232 118.151  0.00  0.00    -0.241 OA
ENDBRANCH   3  22
TORSDOF 7
ENDMDL
MODEL 6
REMARK VINA RESULT:      -4.4      1.959      4.683
REMARK  7 active torsions:
REMARK  status: ('A' for Active; 'I' for Inactive)
REMARK    1  A    between atoms: C_2  and  C_3 
REMARK    2  A    between atoms: C_3  and  O_6 
REMARK    3  A    between atoms: C_3  and  C_4 
REMARK    4  A    between atoms: C_7  and  O_6 
REMARK    5  A    between atoms: C_9  and  C_10 
REMARK    6  A    between atoms: N_15  and  C_14 
REMARK    7  A    between atoms: N_20  and  C_19 
REMARK       I    between atoms: C_22  and  N_20 
ROOT
ATOM      1  C   LIG d   1      -4.856  91.979 117.983  0.00  0.00     0.161 C 
ATOM      2  C   LIG d   1      -4.307  90.687 117.977  0.00  0.00     0.016 C 
ATOM      3  C   LIG d   1      -3.407  90.219 118.962  0.00  0.00     0.038 C 
ATOM      4  C   LIG d   1      -3.112  90.967 120.112  0.00  0.00     0.028 C 
ATOM      5  C   LIG d   1      -3.248  92.472 119.906  0.00  0.00    -0.047 C 
ATOM      6  C   LIG d   1      -4.633  92.771 119.288  0.00  0.00     0.091 C 
ENDROOT
BRANCH   1   7
ATOM      7  O   LIG d   1      -6.262  91.914 117.671  0.00  0.00    -0.368 OA
BRANCH   7   8
ATOM      8  C   LIG d   1      -6.615  92.092 116.277  0.00  0.00     0.119 C 
BRANCH   8   9
ATOM      9  C   LIG d   1      -7.930  92.893 116.231  0.00  0.00     0.028 C 
ATOM     10  C   LIG d   1      -8.024  93.932 117.361  0.00  0.00     0.006 C 
ENDBRANCH   8   9
BRANCH   8  11
ATOM     11  C   LIG d   1      -6.933  90.752 115.608  0.00  0.00     0.028 C 
ATOM     12  C   LIG d   1      -8.298  90.185 116.028  0.00  0.00     0.006 C 
ENDBRANCH   8  11
ENDBRANCH   7   8
ENDBRANCH   1   7
BRANCH   6  13
ATOM     13  N   LIG d   1      -4.815  94.213 118.977  0.00  0.00    -0.311 N 
ATOM     14  C   LIG d   1      -5.382  95.078 119.816  0.00  0.00     0.210 C 
ATOM     15  C   LIG d   1      -5.490  96.513 119.290  0.00  0.00     0.109 C 
ATOM     16  O   LIG d   1      -5.778  94.800 120.958  0.00  0.00    -0.276 OA
ATOM     17  H   LIG d   1      -4.494  94.531 118.083  0.00  0.00     0.149 HD
ENDBRANCH   6  13
BRANCH   5  18
ATOM     18  N   LIG d   1      -3.046  93.120 121.216  0.00  0.00     0.381 N 
ATOM     19  H   LIG d   1      -3.827  93.710 121.425  0.00  0.00    -0.090 HD
ATOM     20  H   LIG d   1      -2.221  93.692 121.172  0.00  0.00    -0.090 HD
ATOM     21  H   LIG d   1      -2.943  92.430 121.926  0.00  0.00    -0.090 HD
ENDBRANCH   5  18
BRANCH   3  22
ATOM     22  C   LIG d   1      -2.761  89.005 118.782  0.00  0.00     0.382 C 
ATOM     23  O   LIG d   1      -1.931  88.869 117.852  0.00  0.00    -0.241 OA
ATOM     24  O   LIG d   1      -3.031  88.032 119.511  0.00  0.00    -0.241 OA
ENDBRANCH   3  22
TORSDOF 7
ENDMDL
MODEL 7
REMARK VINA RESULT:      -4.2      2.443      4.142
REMARK  7 active torsions:
REMARK  status: ('A' for Active; 'I' for Inactive)
REMARK    1  A    between atoms: C_2  and  C_3 
REMARK    2  A    between atoms: C_3  and  O_6 
REMARK    3  A    between atoms: C_3  and  C_4 
REMARK    4  A    between atoms: C_7  and  O_6 
REMARK    5  A    between atoms: C_9  and  C_10 
REMARK    6  A    between atoms: N_15  and  C_14 
REMARK    7  A    between atoms: N_20  and  C_19 
REMARK       I    between atoms: C_22  and  N_20 
ROOT
ATOM      1  C   LIG d   1      -6.503  93.841 120.151  0.00  0.00     0.161 C 
ATOM      2  C   LIG d   1      -7.621  94.204 119.383  0.00  0.00     0.016 C 
ATOM      3  C   LIG d   1      -7.885  95.530 118.969  0.00  0.00     0.038 C 
ATOM      4  C   LIG d   1      -6.961  96.567 119.170  0.00  0.00     0.028 C 
ATOM      5  C   LIG d   1      -6.058  96.347 120.379  0.00  0.00    -0.047 C 
ATOM      6  C   LIG d   1      -5.427  94.939 120.285  0.00  0.00     0.091 C 
ENDROOT
BRANCH   1   7
ATOM      7  O   LIG d   1      -5.921  92.631 119.626  0.00  0.00    -0.368 OA
BRANCH   7   8
ATOM      8  C   LIG d   1      -5.215  92.757 118.368  0.00  0.00     0.119 C 
BRANCH   8   9
ATOM      9  C   LIG d   1      -5.759  91.669 117.421  0.00  0.00     0.028 C 
ATOM     10  C   LIG d   1      -6.703  92.240 116.351  0.00  0.00     0.006 C 
ENDBRANCH   8   9
BRANCH   8  11
ATOM     11  C   LIG d   1      -3.725  92.445 118.531  0.00  0.00     0.028 C 
ATOM     12  C   LIG d   1      -3.433  91.554 119.749  0.00  0.00     0.006 C 
ENDBRANCH   8  11
ENDBRANCH   7   8
ENDBRANCH   1   7
BRANCH   6  13
ATOM     13  N   LIG d   1      -4.594  94.610 121.472  0.00  0.00    -0.311 N 
ATOM     14  C   LIG d   1      -3.280  94.817 121.525  0.00  0.00     0.210 C 
ATOM     15  C   LIG d   1      -2.611  94.389 122.835  0.00  0.00     0.109 C 
ATOM     16  O   LIG d   1      -2.610  95.345 120.625  0.00  0.00    -0.276 OA
ATOM     17  H   LIG d   1      -5.063  94.207 122.260  0.00  0.00     0.149 HD
ENDBRANCH   6  13
BRANCH   5  18
ATOM     18  N   LIG d   1      -5.056  97.430 120.390  0.00  0.00     0.381 N 
ATOM     19  H   LIG d   1      -5.236  98.050 121.154  0.00  0.00    -0.090 HD
ATOM     20  H   LIG d   1      -5.133  97.952 119.535  0.00  0.00    -0.090 HD
ATOM     21  H   LIG d   1      -4.140  97.046 120.472  0.00  0.00    -0.090 HD
ENDBRANCH   5  18
BRANCH   3  22
ATOM     22  C   LIG d   1      -9.102  95.838 118.382  0.00  0.00     0.382 C 
ATOM     23  O   LIG d   1      -9.885  94.918 118.043  0.00  0.00    -0.241 OA
ATOM     24  O   LIG d   1      -9.409  97.022 118.146  0.00  0.00    -0.241 OA
ENDBRANCH   3  22
TORSDOF 7
ENDMDL
MODEL 8
REMARK VINA RESULT:      -4.1      4.672      7.852
REMARK  7 active torsions:
REMARK  status: ('A' for Active; 'I' for Inactive)
REMARK    1  A    between atoms: C_2  and  C_3 
REMARK    2  A    between atoms: C_3  and  O_6 
REMARK    3  A    between atoms: C_3  and  C_4 
REMARK    4  A    between atoms: C_7  and  O_6 
REMARK    5  A    between atoms: C_9  and  C_10 
REMARK    6  A    between atoms: N_15  and  C_14 
REMARK    7  A    between atoms: N_20  and  C_19 
REMARK       I    between atoms: C_22  and  N_20 
ROOT
ATOM      1  C   LIG d   1       0.169  90.776 118.656  0.00  0.00     0.161 C 
ATOM      2  C   LIG d   1       1.302  91.327 118.034  0.00  0.00     0.016 C 
ATOM      3  C   LIG d   1       2.070  90.640 117.066  0.00  0.00     0.038 C 
ATOM      4  C   LIG d   1       1.666  89.403 116.541  0.00  0.00     0.028 C 
ATOM      5  C   LIG d   1       0.809  88.588 117.503  0.00  0.00    -0.047 C 
ATOM      6  C   LIG d   1      -0.351  89.472 118.016  0.00  0.00     0.091 C 
ENDROOT
BRANCH   1   7
ATOM      7  O   LIG d   1      -0.883  91.760 118.715  0.00  0.00    -0.368 OA
BRANCH   7   8
ATOM      8  C   LIG d   1      -1.233  92.240 120.036  0.00  0.00     0.119 C 
BRANCH   8   9
ATOM      9  C   LIG d   1      -2.716  91.899 120.275  0.00  0.00     0.028 C 
ATOM     10  C   LIG d   1      -3.572  92.081 119.010  0.00  0.00     0.006 C 
ENDBRANCH   8   9
BRANCH   8  11
ATOM     11  C   LIG d   1      -1.151  93.768 120.114  0.00  0.00     0.028 C 
ATOM     12  C   LIG d   1       0.279  94.298 119.923  0.00  0.00     0.006 C 
ENDBRANCH   8  11
ENDBRANCH   7   8
ENDBRANCH   1   7
BRANCH   6  13
ATOM     13  N   LIG d   1      -1.190  88.778 119.027  0.00  0.00    -0.311 N 
ATOM     14  C   LIG d   1      -2.476  88.488 118.839  0.00  0.00     0.210 C 
ATOM     15  C   LIG d   1      -3.160  87.788 120.016  0.00  0.00     0.109 C 
ATOM     16  O   LIG d   1      -3.107  88.717 117.795  0.00  0.00    -0.276 OA
ATOM     17  H   LIG d   1      -0.749  88.528 119.891  0.00  0.00     0.149 HD
ENDBRANCH   6  13
BRANCH   5  18
ATOM     18  N   LIG d   1       0.345  87.389 116.780  0.00  0.00     0.381 N 
ATOM     19  H   LIG d   1       0.518  86.572 117.332  0.00  0.00    -0.090 HD
ATOM     20  H   LIG d   1       0.862  87.306 115.923  0.00  0.00    -0.090 HD
ATOM     21  H   LIG d   1      -0.629  87.465 116.583  0.00  0.00    -0.090 HD
ENDBRANCH   5  18
BRANCH   3  22
ATOM     22  C   LIG d   1       3.278  91.172 116.643  0.00  0.00     0.382 C 
ATOM     23  O   LIG d   1       3.615  92.326 117.002  0.00  0.00    -0.241 OA
ATOM     24  O   LIG d   1       4.015  90.531 115.870  0.00  0.00    -0.241 OA
ENDBRANCH   3  22
TORSDOF 7
ENDMDL
MODEL 9
REMARK VINA RESULT:      -4.1      2.370      5.016
REMARK  7 active torsions:
REMARK  status: ('A' for Active; 'I' for Inactive)
REMARK    1  A    between atoms: C_2  and  C_3 
REMARK    2  A    between atoms: C_3  and  O_6 
REMARK    3  A    between atoms: C_3  and  C_4 
REMARK    4  A    between atoms: C_7  and  O_6 
REMARK    5  A    between atoms: C_9  and  C_10 
REMARK    6  A    between atoms: N_15  and  C_14 
REMARK    7  A    between atoms: N_20  and  C_19 
REMARK       I    between atoms: C_22  and  N_20 
ROOT
ATOM      1  C   LIG d   1      -5.482  92.825 118.756  0.00  0.00     0.161 C 
ATOM      2  C   LIG d   1      -4.213  92.362 118.368  0.00  0.00     0.016 C 
ATOM      3  C   LIG d   1      -3.165  92.105 119.281  0.00  0.00     0.038 C 
ATOM      4  C   LIG d   1      -3.364  92.149 120.669  0.00  0.00     0.028 C 
ATOM      5  C   LIG d   1      -4.481  93.099 121.091  0.00  0.00    -0.047 C 
ATOM      6  C   LIG d   1      -5.752  92.773 120.274  0.00  0.00     0.091 C 
ENDROOT
BRANCH   1   7
ATOM      7  O   LIG d   1      -6.505  92.105 118.040  0.00  0.00    -0.368 OA
BRANCH   7   8
ATOM      8  C   LIG d   1      -6.465  92.210 116.595  0.00  0.00     0.119 C 
BRANCH   8   9
ATOM      9  C   LIG d   1      -7.751  92.931 116.147  0.00  0.00     0.028 C 
ATOM     10  C   LIG d   1      -8.384  93.757 117.279  0.00  0.00     0.006 C 
ENDBRANCH   8   9
BRANCH   8  11
ATOM     11  C   LIG d   1      -6.523  90.829 115.935  0.00  0.00     0.028 C 
ATOM     12  C   LIG d   1      -7.958  90.294 115.800  0.00  0.00     0.006 C 
ENDBRANCH   8  11
ENDBRANCH   7   8
ENDBRANCH   1   7
BRANCH   6  13
ATOM     13  N   LIG d   1      -6.868  93.710 120.565  0.00  0.00    -0.311 N 
ATOM     14  C   LIG d   1      -7.811  93.468 121.474  0.00  0.00     0.210 C 
ATOM     15  C   LIG d   1      -8.881  94.557 121.601  0.00  0.00     0.109 C 
ATOM     16  O   LIG d   1      -7.845  92.470 122.209  0.00  0.00    -0.276 OA
ATOM     17  H   LIG d   1      -6.900  94.560 120.035  0.00  0.00     0.149 HD
ENDBRANCH   6  13
BRANCH   5  18
ATOM     18  N   LIG d   1      -4.672  92.943 122.545  0.00  0.00     0.381 N 
ATOM     19  H   LIG d   1      -5.532  92.464 122.724  0.00  0.00    -0.090 HD
ATOM     20  H   LIG d   1      -4.726  93.854 122.965  0.00  0.00    -0.090 HD
ATOM     21  H   LIG d   1      -3.911  92.433 122.937  0.00  0.00    -0.090 HD
ENDBRANCH   5  18
BRANCH   3  22
ATOM     22  C   LIG d   1      -1.890  91.838 118.807  0.00  0.00     0.382 C 
ATOM     23  O   LIG d   1      -1.369  92.591 117.950  0.00  0.00    -0.241 OA
ATOM     24  O   LIG d   1      -1.272  90.827 119.192  0.00  0.00    -0.241 OA
ENDBRANCH   3  22
TORSDOF 7
ENDMDL
