MODEL 1
REMARK VINA RESULT:      -5.3      0.000      0.000
REMARK  7 active torsions:
REMARK  status: ('A' for Active; 'I' for Inactive)
REMARK    1  A    between atoms: C_2  and  C_3 
REMARK    2  A    between atoms: C_3  and  O_6 
REMARK    3  A    between atoms: C_3  and  C_4 
REMARK    4  A    between atoms: C_7  and  O_6 
REMARK    5  A    between atoms: C_9  and  C_10 
REMARK    6  A    between atoms: N_15  and  C_14 
REMARK    7  A    between atoms: N_20  and  C_19 
REMARK       I    between atoms: C_22  and  N_20 
ROOT
ATOM      1  C   LIG d   1      -5.376  92.469 119.026  0.00  0.00     0.161 C 
ATOM      2  C   LIG d   1      -5.804  93.585 119.764  0.00  0.00     0.016 C 
ATOM      3  C   LIG d   1      -6.894  94.400 119.380  0.00  0.00     0.038 C 
ATOM      4  C   LIG d   1      -7.730  94.062 118.305  0.00  0.00     0.028 C 
ATOM      5  C   LIG d   1      -7.034  93.227 117.235  0.00  0.00    -0.047 C 
ATOM      6  C   LIG d   1      -6.344  92.020 117.911  0.00  0.00     0.091 C 
ENDROOT
BRANCH   1   7
ATOM      7  O   LIG d   1      -5.096  91.372 119.918  0.00  0.00    -0.368 OA
BRANCH   7   8
ATOM      8  C   LIG d   1      -3.701  91.007 120.061  0.00  0.00     0.119 C 
BRANCH   8   9
ATOM      9  C   LIG d   1      -3.495  89.669 119.325  0.00  0.00     0.028 C 
ATOM     10  C   LIG d   1      -2.512  89.790 118.149  0.00  0.00     0.006 C 
ENDBRANCH   8   9
BRANCH   8  11
ATOM     11  C   LIG d   1      -3.346  90.725 121.523  0.00  0.00     0.028 C 
ATOM     12  C   LIG d   1      -3.059  89.239 121.791  0.00  0.00     0.006 C 
ENDBRANCH   8  11
ENDBRANCH   7   8
ENDBRANCH   1   7
BRANCH   6  13
ATOM     13  N   LIG d   1      -5.568  91.198 116.947  0.00  0.00    -0.311 N 
ATOM     14  C   LIG d   1      -6.043  90.088 116.382  0.00  0.00     0.210 C 
ATOM     15  C   LIG d   1      -5.072  89.380 115.432  0.00  0.00     0.109 C 
ATOM     16  O   LIG d   1      -7.187  89.641 116.553  0.00  0.00    -0.276 OA
ATOM     17  H   LIG d   1      -4.641  91.505 116.727  0.00  0.00     0.149 HD
ENDBRANCH   6  13
BRANCH   5  18
ATOM     18  N   LIG d   1      -8.053  92.831 116.246  0.00  0.00     0.381 N 
ATOM     19  H   LIG d   1      -8.293  91.868 116.373  0.00  0.00    -0.090 HD
ATOM     20  H   LIG d   1      -7.671  92.941 115.323  0.00  0.00    -0.090 HD
ATOM     21  H   LIG d   1      -8.866  93.399 116.347  0.00  0.00    -0.090 HD
ENDBRANCH   5  18
BRANCH   3  22
ATOM     22  C   LIG d   1      -7.134  95.589 120.051  0.00  0.00     0.382 C 
ATOM     23  O   LIG d   1      -6.295  96.521 119.994  0.00  0.00    -0.241 OA
ATOM     24  O   LIG d   1      -8.156  95.726 120.750  0.00  0.00    -0.241 OA
ENDBRANCH   3  22
TORSDOF 7
ENDMDL
MODEL 2
REMARK VINA RESULT:      -5.2      2.652      4.104
REMARK  7 active torsions:
REMARK  status: ('A' for Active; 'I' for Inactive)
REMARK    1  A    between atoms: C_2  and  C_3 
REMARK    2  A    between atoms: C_3  and  O_6 
REMARK    3  A    between atoms: C_3  and  C_4 
REMARK    4  A    between atoms: C_7  and  O_6 
REMARK    5  A    between atoms: C_9  and  C_10 
REMARK    6  A    between atoms: N_15  and  C_14 
REMARK    7  A    between atoms: N_20  and  C_19 
REMARK       I    between atoms: C_22  and  N_20 
ROOT
ATOM      1  C   LIG d   1      -4.619  92.125 118.741  0.00  0.00     0.161 C 
ATOM      2  C   LIG d   1      -5.906  92.269 118.196  0.00  0.00     0.016 C 
ATOM      3  C   LIG d   1      -6.699  93.427 118.368  0.00  0.00     0.038 C 
ATOM      4  C   LIG d   1      -6.194  94.587 118.974  0.00  0.00     0.028 C 
ATOM      5  C   LIG d   1      -5.082  94.311 119.980  0.00  0.00    -0.047 C 
ATOM      6  C   LIG d   1      -4.009  93.422 119.310  0.00  0.00     0.091 C 
ENDROOT
BRANCH   1   7
ATOM      7  O   LIG d   1      -3.736  91.544 117.761  0.00  0.00    -0.368 OA
BRANCH   7   8
ATOM      8  C   LIG d   1      -3.074  90.315 118.149  0.00  0.00     0.119 C 
BRANCH   8   9
ATOM      9  C   LIG d   1      -3.108  89.367 116.935  0.00  0.00     0.028 C 
ATOM     10  C   LIG d   1      -4.371  89.557 116.078  0.00  0.00     0.006 C 
ENDBRANCH   8   9
BRANCH   8  11
ATOM     11  C   LIG d   1      -3.848  89.589 119.253  0.00  0.00     0.028 C 
ATOM     12  C   LIG d   1      -3.037  89.438 120.550  0.00  0.00     0.006 C 
ENDBRANCH   8  11
ENDBRANCH   7   8
ENDBRANCH   1   7
BRANCH   6  13
ATOM     13  N   LIG d   1      -2.926  93.035 120.251  0.00  0.00    -0.311 N 
ATOM     14  C   LIG d   1      -1.632  93.212 119.992  0.00  0.00     0.210 C 
ATOM     15  C   LIG d   1      -0.680  92.724 121.089  0.00  0.00     0.109 C 
ATOM     16  O   LIG d   1      -1.182  93.756 118.972  0.00  0.00    -0.276 OA
ATOM     17  H   LIG d   1      -3.203  92.615 121.117  0.00  0.00     0.149 HD
ENDBRANCH   6  13
BRANCH   5  18
ATOM     18  N   LIG d   1      -4.555  95.613 120.431  0.00  0.00     0.381 N 
ATOM     19  H   LIG d   1      -3.975  95.483 121.236  0.00  0.00    -0.090 HD
ATOM     20  H   LIG d   1      -5.326  96.203 120.690  0.00  0.00    -0.090 HD
ATOM     21  H   LIG d   1      -4.031  96.041 119.700  0.00  0.00    -0.090 HD
ENDBRANCH   5  18
BRANCH   3  22
ATOM     22  C   LIG d   1      -8.026  93.418 117.967  0.00  0.00     0.382 C 
ATOM     23  O   LIG d   1      -8.941  93.418 118.825  0.00  0.00    -0.241 OA
ATOM     24  O   LIG d   1      -8.319  93.363 116.757  0.00  0.00    -0.241 OA
ENDBRANCH   3  22
TORSDOF 7
ENDMDL
MODEL 3
REMARK VINA RESULT:      -5.1      2.096      5.026
REMARK  7 active torsions:
REMARK  status: ('A' for Active; 'I' for Inactive)
REMARK    1  A    between atoms: C_2  and  C_3 
REMARK    2  A    between atoms: C_3  and  O_6 
REMARK    3  A    between atoms: C_3  and  C_4 
REMARK    4  A    between atoms: C_7  and  O_6 
REMARK    5  A    between atoms: C_9  and  C_10 
REMARK    6  A    between atoms: N_15  and  C_14 
REMARK    7  A    between atoms: N_20  and  C_19 
REMARK       I    between atoms: C_22  and  N_20 
ROOT
ATOM      1  C   LIG d   1      -5.475  91.352 119.104  0.00  0.00     0.161 C 
ATOM      2  C   LIG d   1      -4.630  90.529 118.342  0.00  0.00     0.016 C 
ATOM      3  C   LIG d   1      -4.765  90.355 116.945  0.00  0.00     0.038 C 
ATOM      4  C   LIG d   1      -5.667  91.116 116.187  0.00  0.00     0.028 C 
ATOM      5  C   LIG d   1      -6.881  91.586 116.983  0.00  0.00    -0.047 C 
ATOM      6  C   LIG d   1      -6.395  92.276 118.278  0.00  0.00     0.091 C 
ENDROOT
BRANCH   1   7
ATOM      7  O   LIG d   1      -4.694  92.126 120.036  0.00  0.00    -0.368 OA
BRANCH   7   8
ATOM      8  C   LIG d   1      -3.957  93.241 119.477  0.00  0.00     0.119 C 
BRANCH   8   9
ATOM      9  C   LIG d   1      -2.457  92.956 119.686  0.00  0.00     0.028 C 
ATOM     10  C   LIG d   1      -1.688  92.854 118.358  0.00  0.00     0.006 C 
ENDBRANCH   8   9
BRANCH   8  11
ATOM     11  C   LIG d   1      -4.234  94.535 120.247  0.00  0.00     0.028 C 
ATOM     12  C   LIG d   1      -4.823  94.282 121.645  0.00  0.00     0.006 C 
ENDBRANCH   8  11
ENDBRANCH   7   8
ENDBRANCH   1   7
BRANCH   6  13
ATOM     13  N   LIG d   1      -7.521  92.691 119.155  0.00  0.00    -0.311 N 
ATOM     14  C   LIG d   1      -7.872  93.961 119.345  0.00  0.00     0.210 C 
ATOM     15  C   LIG d   1      -9.048  94.170 120.304  0.00  0.00     0.109 C 
ATOM     16  O   LIG d   1      -7.343  94.933 118.784  0.00  0.00    -0.276 OA
ATOM     17  H   LIG d   1      -8.025  91.964 119.625  0.00  0.00     0.149 HD
ENDBRANCH   6  13
BRANCH   5  18
ATOM     18  N   LIG d   1      -7.666  92.480 116.111  0.00  0.00     0.381 N 
ATOM     19  H   LIG d   1      -8.643  92.342 116.277  0.00  0.00    -0.090 HD
ATOM     20  H   LIG d   1      -7.473  92.251 115.152  0.00  0.00    -0.090 HD
ATOM     21  H   LIG d   1      -7.423  93.429 116.289  0.00  0.00    -0.090 HD
ENDBRANCH   5  18
BRANCH   3  22
ATOM     22  C   LIG d   1      -4.018  89.382 116.298  0.00  0.00     0.382 C 
ATOM     23  O   LIG d   1      -4.558  88.648 115.437  0.00  0.00    -0.241 OA
ATOM     24  O   LIG d   1      -2.823  89.200 116.598  0.00  0.00    -0.241 OA
ENDBRANCH   3  22
TORSDOF 7
ENDMDL
MODEL 4
REMARK VINA RESULT:      -5.1      2.076      4.951
REMARK  7 active torsions:
REMARK  status: ('A' for Active; 'I' for Inactive)
REMARK    1  A    between atoms: C_2  and  C_3 
REMARK    2  A    between atoms: C_3  and  O_6 
REMARK    3  A    between atoms: C_3  and  C_4 
REMARK    4  A    between atoms: C_7  and  O_6 
REMARK    5  A    between atoms: C_9  and  C_10 
REMARK    6  A    between atoms: N_15  and  C_14 
REMARK    7  A    between atoms: N_20  and  C_19 
REMARK       I    between atoms: C_22  and  N_20 
ROOT
ATOM      1  C   LIG d   1      -5.056  91.396 119.163  0.00  0.00     0.161 C 
ATOM      2  C   LIG d   1      -5.326  90.488 118.125  0.00  0.00     0.016 C 
ATOM      3  C   LIG d   1      -6.245  90.749 117.082  0.00  0.00     0.038 C 
ATOM      4  C   LIG d   1      -6.848  92.006 116.922  0.00  0.00     0.028 C 
ATOM      5  C   LIG d   1      -6.991  92.779 118.229  0.00  0.00    -0.047 C 
ATOM      6  C   LIG d   1      -5.621  92.815 118.944  0.00  0.00     0.091 C 
ENDROOT
BRANCH   1   7
ATOM      7  O   LIG d   1      -3.636  91.454 119.404  0.00  0.00    -0.368 OA
BRANCH   7   8
ATOM      8  C   LIG d   1      -2.797  91.621 118.235  0.00  0.00     0.119 C 
BRANCH   8   9
ATOM      9  C   LIG d   1      -1.681  90.561 118.311  0.00  0.00     0.028 C 
ATOM     10  C   LIG d   1      -1.816  89.487 117.219  0.00  0.00     0.006 C 
ENDBRANCH   8   9
BRANCH   8  11
ATOM     11  C   LIG d   1      -2.076  92.972 118.256  0.00  0.00     0.028 C 
ATOM     12  C   LIG d   1      -0.682  92.913 117.610  0.00  0.00     0.006 C 
ENDBRANCH   8  11
ENDBRANCH   7   8
ENDBRANCH   1   7
BRANCH   6  13
ATOM     13  N   LIG d   1      -5.691  93.481 120.271  0.00  0.00    -0.311 N 
ATOM     14  C   LIG d   1      -5.351  94.752 120.472  0.00  0.00     0.210 C 
ATOM     15  C   LIG d   1      -5.479  95.235 121.920  0.00  0.00     0.109 C 
ATOM     16  O   LIG d   1      -4.985  95.536 119.583  0.00  0.00    -0.276 OA
ATOM     17  H   LIG d   1      -6.007  92.927 121.043  0.00  0.00     0.149 HD
ENDBRANCH   6  13
BRANCH   5  18
ATOM     18  N   LIG d   1      -7.506  94.121 117.898  0.00  0.00     0.381 N 
ATOM     19  H   LIG d   1      -7.502  94.251 116.906  0.00  0.00    -0.090 HD
ATOM     20  H   LIG d   1      -6.902  94.812 118.309  0.00  0.00    -0.090 HD
ATOM     21  H   LIG d   1      -8.432  94.228 118.251  0.00  0.00    -0.090 HD
ENDBRANCH   5  18
BRANCH   3  22
ATOM     22  C   LIG d   1      -6.599  89.733 116.208  0.00  0.00     0.382 C 
ATOM     23  O   LIG d   1      -7.764  89.268 116.226  0.00  0.00    -0.241 OA
ATOM     24  O   LIG d   1      -5.755  89.245 115.432  0.00  0.00    -0.241 OA
ENDBRANCH   3  22
TORSDOF 7
ENDMDL
MODEL 5
REMARK VINA RESULT:      -5.0      2.531      5.971
REMARK  7 active torsions:
REMARK  status: ('A' for Active; 'I' for Inactive)
REMARK    1  A    between atoms: C_2  and  C_3 
REMARK    2  A    between atoms: C_3  and  O_6 
REMARK    3  A    between atoms: C_3  and  C_4 
REMARK    4  A    between atoms: C_7  and  O_6 
REMARK    5  A    between atoms: C_9  and  C_10 
REMARK    6  A    between atoms: N_15  and  C_14 
REMARK    7  A    between atoms: N_20  and  C_19 
REMARK       I    between atoms: C_22  and  N_20 
ROOT
ATOM      1  C   LIG d   1      -5.639  92.745 118.555  0.00  0.00     0.161 C 
ATOM      2  C   LIG d   1      -6.373  91.738 117.905  0.00  0.00     0.016 C 
ATOM      3  C   LIG d   1      -5.774  90.629 117.264  0.00  0.00     0.038 C 
ATOM      4  C   LIG d   1      -4.399  90.371 117.360  0.00  0.00     0.028 C 
ATOM      5  C   LIG d   1      -3.560  91.626 117.576  0.00  0.00    -0.047 C 
ATOM      6  C   LIG d   1      -4.145  92.422 118.766  0.00  0.00     0.091 C 
ENDROOT
BRANCH   1   7
ATOM      7  O   LIG d   1      -6.263  93.071 119.812  0.00  0.00    -0.368 OA
BRANCH   7   8
ATOM      8  C   LIG d   1      -7.192  94.183 119.793  0.00  0.00     0.119 C 
BRANCH   8   9
ATOM      9  C   LIG d   1      -6.391  95.460 120.110  0.00  0.00     0.028 C 
ATOM     10  C   LIG d   1      -7.118  96.737 119.655  0.00  0.00     0.006 C 
ENDBRANCH   8   9
BRANCH   8  11
ATOM     11  C   LIG d   1      -8.226  94.064 120.917  0.00  0.00     0.028 C 
ATOM     12  C   LIG d   1      -9.641  93.767 120.396  0.00  0.00     0.006 C 
ENDBRANCH   8  11
ENDBRANCH   7   8
ENDBRANCH   1   7
BRANCH   6  13
ATOM     13  N   LIG d   1      -3.434  93.707 118.992  0.00  0.00    -0.311 N 
ATOM     14  C   LIG d   1      -2.843  94.026 120.142  0.00  0.00     0.210 C 
ATOM     15  C   LIG d   1      -2.185  95.409 120.169  0.00  0.00     0.109 C 
ATOM     16  O   LIG d   1      -2.774  93.281 121.131  0.00  0.00    -0.276 OA
ATOM     17  H   LIG d   1      -3.415  94.358 118.231  0.00  0.00     0.149 HD
ENDBRANCH   6  13
BRANCH   5  18
ATOM     18  N   LIG d   1      -2.166  91.198 117.796  0.00  0.00     0.381 N 
ATOM     19  H   LIG d   1      -2.028  90.978 118.762  0.00  0.00    -0.090 HD
ATOM     20  H   LIG d   1      -1.551  91.956 117.554  0.00  0.00    -0.090 HD
ATOM     21  H   LIG d   1      -1.961  90.402 117.234  0.00  0.00    -0.090 HD
ENDBRANCH   5  18
BRANCH   3  22
ATOM     22  C   LIG d   1      -6.550  89.786 116.483  0.00  0.00     0.382 C 
ATOM     23  O   LIG d   1      -7.724  89.512 116.832  0.00  0.00    -0.241 OA
ATOM     24  O   LIG d   1      -6.076  89.261 115.458  0.00  0.00    -0.241 OA
ENDBRANCH   3  22
TORSDOF 7
ENDMDL
MODEL 6
REMARK VINA RESULT:      -4.8      2.216      4.912
REMARK  7 active torsions:
REMARK  status: ('A' for Active; 'I' for Inactive)
REMARK    1  A    between atoms: C_2  and  C_3 
REMARK    2  A    between atoms: C_3  and  O_6 
REMARK    3  A    between atoms: C_3  and  C_4 
REMARK    4  A    between atoms: C_7  and  O_6 
REMARK    5  A    between atoms: C_9  and  C_10 
REMARK    6  A    between atoms: N_15  and  C_14 
REMARK    7  A    between atoms: N_20  and  C_19 
REMARK       I    between atoms: C_22  and  N_20 
ROOT
ATOM      1  C   LIG d   1      -4.341  91.328 118.595  0.00  0.00     0.161 C 
ATOM      2  C   LIG d   1      -4.891  90.572 117.546  0.00  0.00     0.016 C 
ATOM      3  C   LIG d   1      -6.075  90.935 116.863  0.00  0.00     0.038 C 
ATOM      4  C   LIG d   1      -6.709  92.167 117.082  0.00  0.00     0.028 C 
ATOM      5  C   LIG d   1      -6.476  92.728 118.481  0.00  0.00    -0.047 C 
ATOM      6  C   LIG d   1      -4.958  92.731 118.774  0.00  0.00     0.091 C 
ENDROOT
BRANCH   1   7
ATOM      7  O   LIG d   1      -2.913  91.426 118.429  0.00  0.00    -0.368 OA
BRANCH   7   8
ATOM      8  C   LIG d   1      -2.107  90.761 119.433  0.00  0.00     0.119 C 
BRANCH   8   9
ATOM      9  C   LIG d   1      -1.299  91.846 120.170  0.00  0.00     0.028 C 
ATOM     10  C   LIG d   1      -1.073  93.099 119.307  0.00  0.00     0.006 C 
ENDBRANCH   8   9
BRANCH   8  11
ATOM     11  C   LIG d   1      -1.063  89.843 118.792  0.00  0.00     0.028 C 
ATOM     12  C   LIG d   1      -1.332  89.584 117.301  0.00  0.00     0.006 C 
ENDBRANCH   8  11
ENDBRANCH   7   8
ENDBRANCH   1   7
BRANCH   6  13
ATOM     13  N   LIG d   1      -4.647  93.186 120.154  0.00  0.00    -0.311 N 
ATOM     14  C   LIG d   1      -4.341  94.445 120.459  0.00  0.00     0.210 C 
ATOM     15  C   LIG d   1      -4.036  94.696 121.939  0.00  0.00     0.109 C 
ATOM     16  O   LIG d   1      -4.326  95.385 119.650  0.00  0.00    -0.276 OA
ATOM     17  H   LIG d   1      -4.668  92.494 120.878  0.00  0.00     0.149 HD
ENDBRANCH   6  13
BRANCH   5  18
ATOM     18  N   LIG d   1      -7.076  94.074 118.528  0.00  0.00     0.381 N 
ATOM     19  H   LIG d   1      -6.940  94.536 117.651  0.00  0.00    -0.090 HD
ATOM     20  H   LIG d   1      -6.616  94.611 119.242  0.00  0.00    -0.090 HD
ATOM     21  H   LIG d   1      -8.050  94.006 118.728  0.00  0.00    -0.090 HD
ENDBRANCH   5  18
BRANCH   3  22
ATOM     22  C   LIG d   1      -6.657  90.043 115.975  0.00  0.00     0.382 C 
ATOM     23  O   LIG d   1      -5.959  89.155 115.430  0.00  0.00    -0.241 OA
ATOM     24  O   LIG d   1      -7.863  90.144 115.679  0.00  0.00    -0.241 OA
ENDBRANCH   3  22
TORSDOF 7
ENDMDL
MODEL 7
REMARK VINA RESULT:      -4.7      1.616      2.392
REMARK  7 active torsions:
REMARK  status: ('A' for Active; 'I' for Inactive)
REMARK    1  A    between atoms: C_2  and  C_3 
REMARK    2  A    between atoms: C_3  and  O_6 
REMARK    3  A    between atoms: C_3  and  C_4 
REMARK    4  A    between atoms: C_7  and  O_6 
REMARK    5  A    between atoms: C_9  and  C_10 
REMARK    6  A    between atoms: N_15  and  C_14 
REMARK    7  A    between atoms: N_20  and  C_19 
REMARK       I    between atoms: C_22  and  N_20 
ROOT
ATOM      1  C   LIG d   1      -4.967  91.924 118.899  0.00  0.00     0.161 C 
ATOM      2  C   LIG d   1      -4.363  93.056 119.472  0.00  0.00     0.016 C 
ATOM      3  C   LIG d   1      -4.986  94.324 119.533  0.00  0.00     0.038 C 
ATOM      4  C   LIG d   1      -6.325  94.510 119.157  0.00  0.00     0.028 C 
ATOM      5  C   LIG d   1      -6.804  93.514 118.107  0.00  0.00    -0.047 C 
ATOM      6  C   LIG d   1      -6.469  92.082 118.584  0.00  0.00     0.091 C 
ENDROOT
BRANCH   1   7
ATOM      7  O   LIG d   1      -4.749  90.775 119.741  0.00  0.00    -0.368 OA
BRANCH   7   8
ATOM      8  C   LIG d   1      -3.883  89.746 119.204  0.00  0.00     0.119 C 
BRANCH   8   9
ATOM      9  C   LIG d   1      -2.744  89.523 120.218  0.00  0.00     0.028 C 
ATOM     10  C   LIG d   1      -1.594  90.528 120.039  0.00  0.00     0.006 C 
ENDBRANCH   8   9
BRANCH   8  11
ATOM     11  C   LIG d   1      -3.195  90.212 117.918  0.00  0.00     0.028 C 
ATOM     12  C   LIG d   1      -3.314  89.192 116.775  0.00  0.00     0.006 C 
ENDBRANCH   8  11
ENDBRANCH   7   8
ENDBRANCH   1   7
BRANCH   6  13
ATOM     13  N   LIG d   1      -6.828  91.050 117.577  0.00  0.00    -0.311 N 
ATOM     14  C   LIG d   1      -6.432  91.097 116.306  0.00  0.00     0.210 C 
ATOM     15  C   LIG d   1      -6.931  89.943 115.430  0.00  0.00     0.109 C 
ATOM     16  O   LIG d   1      -5.689  91.967 115.828  0.00  0.00    -0.276 OA
ATOM     17  H   LIG d   1      -7.403  90.291 117.886  0.00  0.00     0.149 HD
ENDBRANCH   6  13
BRANCH   5  18
ATOM     18  N   LIG d   1      -8.249  93.734 117.909  0.00  0.00     0.381 N 
ATOM     19  H   LIG d   1      -8.767  93.201 118.579  0.00  0.00    -0.090 HD
ATOM     20  H   LIG d   1      -8.503  93.418 116.990  0.00  0.00    -0.090 HD
ATOM     21  H   LIG d   1      -8.463  94.702 118.007  0.00  0.00    -0.090 HD
ENDBRANCH   5  18
BRANCH   3  22
ATOM     22  C   LIG d   1      -4.255  95.430 119.937  0.00  0.00     0.382 C 
ATOM     23  O   LIG d   1      -4.797  96.561 119.970  0.00  0.00    -0.241 OA
ATOM     24  O   LIG d   1      -3.049  95.319 120.226  0.00  0.00    -0.241 OA
ENDBRANCH   3  22
TORSDOF 7
ENDMDL
MODEL 8
REMARK VINA RESULT:      -4.7      4.233      6.779
REMARK  7 active torsions:
REMARK  status: ('A' for Active; 'I' for Inactive)
REMARK    1  A    between atoms: C_2  and  C_3 
REMARK    2  A    between atoms: C_3  and  O_6 
REMARK    3  A    between atoms: C_3  and  C_4 
REMARK    4  A    between atoms: C_7  and  O_6 
REMARK    5  A    between atoms: C_9  and  C_10 
REMARK    6  A    between atoms: N_15  and  C_14 
REMARK    7  A    between atoms: N_20  and  C_19 
REMARK       I    between atoms: C_22  and  N_20 
ROOT
ATOM      1  C   LIG d   1      -1.428  91.834 117.955  0.00  0.00     0.161 C 
ATOM      2  C   LIG d   1      -0.123  91.515 117.546  0.00  0.00     0.016 C 
ATOM      3  C   LIG d   1       0.964  92.414 117.640  0.00  0.00     0.038 C 
ATOM      4  C   LIG d   1       0.850  93.650 118.294  0.00  0.00     0.028 C 
ATOM      5  C   LIG d   1      -0.565  94.219 118.270  0.00  0.00    -0.047 C 
ATOM      6  C   LIG d   1      -1.549  93.137 118.772  0.00  0.00     0.091 C 
ENDROOT
BRANCH   1   7
ATOM      7  O   LIG d   1      -1.995  90.729 118.686  0.00  0.00    -0.368 OA
BRANCH   7   8
ATOM      8  C   LIG d   1      -3.295  90.271 118.241  0.00  0.00     0.119 C 
BRANCH   8   9
ATOM      9  C   LIG d   1      -3.903  89.426 119.378  0.00  0.00     0.028 C 
ATOM     10  C   LIG d   1      -3.125  89.573 120.697  0.00  0.00     0.006 C 
ENDBRANCH   8   9
BRANCH   8  11
ATOM     11  C   LIG d   1      -3.171  89.317 117.049  0.00  0.00     0.028 C 
ATOM     12  C   LIG d   1      -4.297  89.500 116.019  0.00  0.00     0.006 C 
ENDBRANCH   8  11
ENDBRANCH   7   8
ENDBRANCH   1   7
BRANCH   6  13
ATOM     13  N   LIG d   1      -2.965  93.583 118.702  0.00  0.00    -0.311 N 
ATOM     14  C   LIG d   1      -3.812  93.497 119.726  0.00  0.00     0.210 C 
ATOM     15  C   LIG d   1      -5.231  93.995 119.434  0.00  0.00     0.109 C 
ATOM     16  O   LIG d   1      -3.515  93.087 120.858  0.00  0.00    -0.276 OA
ATOM     17  H   LIG d   1      -3.282  93.958 117.830  0.00  0.00     0.149 HD
ENDBRANCH   6  13
BRANCH   5  18
ATOM     18  N   LIG d   1      -0.570  95.436 119.103  0.00  0.00     0.381 N 
ATOM     19  H   LIG d   1      -1.510  95.747 119.244  0.00  0.00    -0.090 HD
ATOM     20  H   LIG d   1      -0.067  96.161 118.622  0.00  0.00    -0.090 HD
ATOM     21  H   LIG d   1      -0.139  95.250 119.982  0.00  0.00    -0.090 HD
ENDBRANCH   5  18
BRANCH   3  22
ATOM     22  C   LIG d   1       2.174  92.096 117.040  0.00  0.00     0.382 C 
ATOM     23  O   LIG d   1       2.330  90.973 116.503  0.00  0.00    -0.241 OA
ATOM     24  O   LIG d   1       3.124  92.900 117.069  0.00  0.00    -0.241 OA
ENDBRANCH   3  22
TORSDOF 7
ENDMDL
MODEL 9
REMARK VINA RESULT:      -4.6      2.214      5.271
REMARK  7 active torsions:
REMARK  status: ('A' for Active; 'I' for Inactive)
REMARK    1  A    between atoms: C_2  and  C_3 
REMARK    2  A    between atoms: C_3  and  O_6 
REMARK    3  A    between atoms: C_3  and  C_4 
REMARK    4  A    between atoms: C_7  and  O_6 
REMARK    5  A    between atoms: C_9  and  C_10 
REMARK    6  A    between atoms: N_15  and  C_14 
REMARK    7  A    between atoms: N_20  and  C_19 
REMARK       I    between atoms: C_22  and  N_20 
ROOT
ATOM      1  C   LIG d   1      -4.782  90.600 119.434  0.00  0.00     0.161 C 
ATOM      2  C   LIG d   1      -3.725  90.431 120.344  0.00  0.00     0.016 C 
ATOM      3  C   LIG d   1      -2.429  90.012 119.962  0.00  0.00     0.038 C 
ATOM      4  C   LIG d   1      -2.060  89.880 118.615  0.00  0.00     0.028 C 
ATOM      5  C   LIG d   1      -3.231  89.552 117.695  0.00  0.00    -0.047 C 
ATOM      6  C   LIG d   1      -4.367  90.568 117.948  0.00  0.00     0.091 C 
ENDROOT
BRANCH   1   7
ATOM      7  O   LIG d   1      -5.490  91.820 119.730  0.00  0.00    -0.368 OA
BRANCH   7   8
ATOM      8  C   LIG d   1      -4.989  93.020 119.090  0.00  0.00     0.119 C 
BRANCH   8   9
ATOM      9  C   LIG d   1      -4.105  93.756 120.115  0.00  0.00     0.028 C 
ATOM     10  C   LIG d   1      -2.659  93.935 119.621  0.00  0.00     0.006 C 
ENDBRANCH   8   9
BRANCH   8  11
ATOM     11  C   LIG d   1      -6.126  93.992 118.762  0.00  0.00     0.028 C 
ATOM     12  C   LIG d   1      -7.476  93.286 118.562  0.00  0.00     0.006 C 
ENDBRANCH   8  11
ENDBRANCH   7   8
ENDBRANCH   1   7
BRANCH   6  13
ATOM     13  N   LIG d   1      -5.584  90.268 117.148  0.00  0.00    -0.311 N 
ATOM     14  C   LIG d   1      -5.988  91.014 116.121  0.00  0.00     0.210 C 
ATOM     15  C   LIG d   1      -7.279  90.539 115.447  0.00  0.00     0.109 C 
ATOM     16  O   LIG d   1      -5.383  92.004 115.685  0.00  0.00    -0.276 OA
ATOM     17  H   LIG d   1      -6.118  89.464 117.414  0.00  0.00     0.149 HD
ENDBRANCH   6  13
BRANCH   5  18
ATOM     18  N   LIG d   1      -2.729  89.578 116.308  0.00  0.00     0.381 N 
ATOM     19  H   LIG d   1      -2.052  88.853 116.179  0.00  0.00    -0.090 HD
ATOM     20  H   LIG d   1      -2.279  90.462 116.142  0.00  0.00    -0.090 HD
ATOM     21  H   LIG d   1      -3.484  89.456 115.670  0.00  0.00    -0.090 HD
ENDBRANCH   5  18
BRANCH   3  22
ATOM     22  C   LIG d   1      -1.499  89.683 120.936  0.00  0.00     0.382 C 
ATOM     23  O   LIG d   1      -1.840  88.978 121.916  0.00  0.00    -0.241 OA
ATOM     24  O   LIG d   1      -0.334  90.118 120.870  0.00  0.00    -0.241 OA
ENDBRANCH   3  22
TORSDOF 7
ENDMDL
