MODEL 1
REMARK VINA RESULT:      -5.1      0.000      0.000
REMARK  7 active torsions:
REMARK  status: ('A' for Active; 'I' for Inactive)
REMARK    1  A    between atoms: C_2  and  C_3 
REMARK    2  A    between atoms: C_3  and  O_6 
REMARK    3  A    between atoms: C_3  and  C_4 
REMARK    4  A    between atoms: C_7  and  O_6 
REMARK    5  A    between atoms: C_9  and  C_10 
REMARK    6  A    between atoms: N_15  and  C_14 
REMARK    7  A    between atoms: N_20  and  C_19 
REMARK       I    between atoms: C_22  and  N_20 
ROOT
ATOM      1  C   LIG d   1      -2.240  89.867 117.874  0.00  0.00     0.161 C 
ATOM      2  C   LIG d   1      -3.529  89.612 117.377  0.00  0.00     0.016 C 
ATOM      3  C   LIG d   1      -4.466  90.630 117.084  0.00  0.00     0.038 C 
ATOM      4  C   LIG d   1      -4.121  91.989 117.126  0.00  0.00     0.028 C 
ATOM      5  C   LIG d   1      -2.993  92.298 118.105  0.00  0.00    -0.047 C 
ATOM      6  C   LIG d   1      -1.808  91.347 117.821  0.00  0.00     0.091 C 
ENDROOT
BRANCH   1   7
ATOM      7  O   LIG d   1      -1.280  89.039 117.188  0.00  0.00    -0.368 OA
BRANCH   7   8
ATOM      8  C   LIG d   1      -1.370  87.615 117.441  0.00  0.00     0.119 C 
BRANCH   8   9
ATOM      9  C   LIG d   1      -0.920  87.374 118.895  0.00  0.00     0.028 C 
ATOM     10  C   LIG d   1      -2.051  86.811 119.773  0.00  0.00     0.006 C 
ENDBRANCH   8   9
BRANCH   8  11
ATOM     11  C   LIG d   1      -0.379  86.832 116.575  0.00  0.00     0.028 C 
ATOM     12  C   LIG d   1       0.870  86.387 117.352  0.00  0.00     0.006 C 
ENDBRANCH   8  11
ENDBRANCH   7   8
ENDBRANCH   1   7
BRANCH   6  13
ATOM     13  N   LIG d   1      -0.693  91.525 118.788  0.00  0.00    -0.311 N 
ATOM     14  C   LIG d   1       0.386  92.263 118.536  0.00  0.00     0.210 C 
ATOM     15  C   LIG d   1       1.424  92.296 119.662  0.00  0.00     0.109 C 
ATOM     16  O   LIG d   1       0.568  92.918 117.499  0.00  0.00    -0.276 OA
ATOM     17  H   LIG d   1      -0.773  91.053 119.668  0.00  0.00     0.149 HD
ENDBRANCH   6  13
BRANCH   5  18
ATOM     18  N   LIG d   1      -2.642  93.722 117.947  0.00  0.00     0.381 N 
ATOM     19  H   LIG d   1      -2.834  94.016 117.010  0.00  0.00    -0.090 HD
ATOM     20  H   LIG d   1      -1.659  93.836 118.118  0.00  0.00    -0.090 HD
ATOM     21  H   LIG d   1      -3.165  94.275 118.589  0.00  0.00    -0.090 HD
ENDBRANCH   5  18
BRANCH   3  22
ATOM     22  C   LIG d   1      -5.776  90.292 116.783  0.00  0.00     0.382 C 
ATOM     23  O   LIG d   1      -6.642  91.192 116.655  0.00  0.00    -0.241 OA
ATOM     24  O   LIG d   1      -6.113  89.098 116.681  0.00  0.00    -0.241 OA
ENDBRANCH   3  22
TORSDOF 7
ENDMDL
MODEL 2
REMARK VINA RESULT:      -5.1      3.424      5.394
REMARK  7 active torsions:
REMARK  status: ('A' for Active; 'I' for Inactive)
REMARK    1  A    between atoms: C_2  and  C_3 
REMARK    2  A    between atoms: C_3  and  O_6 
REMARK    3  A    between atoms: C_3  and  C_4 
REMARK    4  A    between atoms: C_7  and  O_6 
REMARK    5  A    between atoms: C_9  and  C_10 
REMARK    6  A    between atoms: N_15  and  C_14 
REMARK    7  A    between atoms: N_20  and  C_19 
REMARK       I    between atoms: C_22  and  N_20 
ROOT
ATOM      1  C   LIG d   1      -5.714  92.638 118.534  0.00  0.00     0.161 C 
ATOM      2  C   LIG d   1      -6.222  91.481 117.920  0.00  0.00     0.016 C 
ATOM      3  C   LIG d   1      -5.423  90.578 117.181  0.00  0.00     0.038 C 
ATOM      4  C   LIG d   1      -4.026  90.692 117.133  0.00  0.00     0.028 C 
ATOM      5  C   LIG d   1      -3.528  92.122 117.315  0.00  0.00    -0.047 C 
ATOM      6  C   LIG d   1      -4.174  92.719 118.586  0.00  0.00     0.091 C 
ENDROOT
BRANCH   1   7
ATOM      7  O   LIG d   1      -6.268  92.771 119.858  0.00  0.00    -0.368 OA
BRANCH   7   8
ATOM      8  C   LIG d   1      -6.842  91.571 120.433  0.00  0.00     0.119 C 
BRANCH   8   9
ATOM      9  C   LIG d   1      -8.203  91.955 121.044  0.00  0.00     0.028 C 
ATOM     10  C   LIG d   1      -8.637  93.380 120.660  0.00  0.00     0.006 C 
ENDBRANCH   8   9
BRANCH   8  11
ATOM     11  C   LIG d   1      -6.001  91.058 121.606  0.00  0.00     0.028 C 
ATOM     12  C   LIG d   1      -6.851  90.703 122.837  0.00  0.00     0.006 C 
ENDBRANCH   8  11
ENDBRANCH   7   8
ENDBRANCH   1   7
BRANCH   6  13
ATOM     13  N   LIG d   1      -3.806  94.145 118.793  0.00  0.00    -0.311 N 
ATOM     14  C   LIG d   1      -2.781  94.535 119.548  0.00  0.00     0.210 C 
ATOM     15  C   LIG d   1      -2.588  96.052 119.643  0.00  0.00     0.109 C 
ATOM     16  O   LIG d   1      -1.993  93.768 120.122  0.00  0.00    -0.276 OA
ATOM     17  H   LIG d   1      -4.374  94.833 118.338  0.00  0.00     0.149 HD
ENDBRANCH   6  13
BRANCH   5  18
ATOM     18  N   LIG d   1      -2.055  92.076 117.382  0.00  0.00     0.381 N 
ATOM     19  H   LIG d   1      -1.696  91.587 116.587  0.00  0.00    -0.090 HD
ATOM     20  H   LIG d   1      -1.783  91.576 118.210  0.00  0.00    -0.090 HD
ATOM     21  H   LIG d   1      -1.686  93.001 117.407  0.00  0.00    -0.090 HD
ENDBRANCH   5  18
BRANCH   3  22
ATOM     22  C   LIG d   1      -6.027  89.569 116.446  0.00  0.00     0.382 C 
ATOM     23  O   LIG d   1      -5.454  89.102 115.432  0.00  0.00    -0.241 OA
ATOM     24  O   LIG d   1      -7.159  89.151 116.758  0.00  0.00    -0.241 OA
ENDBRANCH   3  22
TORSDOF 7
ENDMDL
MODEL 3
REMARK VINA RESULT:      -5.0      3.300      5.844
REMARK  7 active torsions:
REMARK  status: ('A' for Active; 'I' for Inactive)
REMARK    1  A    between atoms: C_2  and  C_3 
REMARK    2  A    between atoms: C_3  and  O_6 
REMARK    3  A    between atoms: C_3  and  C_4 
REMARK    4  A    between atoms: C_7  and  O_6 
REMARK    5  A    between atoms: C_9  and  C_10 
REMARK    6  A    between atoms: N_15  and  C_14 
REMARK    7  A    between atoms: N_20  and  C_19 
REMARK       I    between atoms: C_22  and  N_20 
ROOT
ATOM      1  C   LIG d   1      -5.530  92.706 118.518  0.00  0.00     0.161 C 
ATOM      2  C   LIG d   1      -6.049  91.524 117.966  0.00  0.00     0.016 C 
ATOM      3  C   LIG d   1      -5.256  90.566 117.292  0.00  0.00     0.038 C 
ATOM      4  C   LIG d   1      -3.857  90.655 117.257  0.00  0.00     0.028 C 
ATOM      5  C   LIG d   1      -3.338  92.085 117.362  0.00  0.00    -0.047 C 
ATOM      6  C   LIG d   1      -3.990  92.767 118.587  0.00  0.00     0.091 C 
ENDROOT
BRANCH   1   7
ATOM      7  O   LIG d   1      -6.099  92.926 119.825  0.00  0.00    -0.368 OA
BRANCH   7   8
ATOM      8  C   LIG d   1      -6.980  94.069 119.952  0.00  0.00     0.119 C 
BRANCH   8   9
ATOM      9  C   LIG d   1      -8.367  93.541 120.364  0.00  0.00     0.028 C 
ATOM     10  C   LIG d   1      -8.291  92.169 121.056  0.00  0.00     0.006 C 
ENDBRANCH   8   9
BRANCH   8  11
ATOM     11  C   LIG d   1      -7.193  94.761 118.603  0.00  0.00     0.028 C 
ATOM     12  C   LIG d   1      -6.738  96.229 118.607  0.00  0.00     0.006 C 
ENDBRANCH   8  11
ENDBRANCH   7   8
ENDBRANCH   1   7
BRANCH   6  13
ATOM     13  N   LIG d   1      -3.601  94.195 118.715  0.00  0.00    -0.311 N 
ATOM     14  C   LIG d   1      -2.589  94.615 119.472  0.00  0.00     0.210 C 
ATOM     15  C   LIG d   1      -2.370  96.131 119.478  0.00  0.00     0.109 C 
ATOM     16  O   LIG d   1      -1.831  93.872 120.115  0.00  0.00    -0.276 OA
ATOM     17  H   LIG d   1      -4.143  94.863 118.202  0.00  0.00     0.149 HD
ENDBRANCH   6  13
BRANCH   5  18
ATOM     18  N   LIG d   1      -1.867  92.020 117.452  0.00  0.00     0.381 N 
ATOM     19  H   LIG d   1      -1.467  92.130 116.542  0.00  0.00    -0.090 HD
ATOM     20  H   LIG d   1      -1.602  91.117 117.805  0.00  0.00    -0.090 HD
ATOM     21  H   LIG d   1      -1.530  92.734 118.060  0.00  0.00    -0.090 HD
ENDBRANCH   5  18
BRANCH   3  22
ATOM     22  C   LIG d   1      -5.867  89.526 116.610  0.00  0.00     0.382 C 
ATOM     23  O   LIG d   1      -7.072  89.252 116.831  0.00  0.00    -0.241 OA
ATOM     24  O   LIG d   1      -5.218  88.828 115.808  0.00  0.00    -0.241 OA
ENDBRANCH   3  22
TORSDOF 7
ENDMDL
MODEL 4
REMARK VINA RESULT:      -5.0      3.309      5.990
REMARK  7 active torsions:
REMARK  status: ('A' for Active; 'I' for Inactive)
REMARK    1  A    between atoms: C_2  and  C_3 
REMARK    2  A    between atoms: C_3  and  O_6 
REMARK    3  A    between atoms: C_3  and  C_4 
REMARK    4  A    between atoms: C_7  and  O_6 
REMARK    5  A    between atoms: C_9  and  C_10 
REMARK    6  A    between atoms: N_15  and  C_14 
REMARK    7  A    between atoms: N_20  and  C_19 
REMARK       I    between atoms: C_22  and  N_20 
ROOT
ATOM      1  C   LIG d   1      -5.559  92.750 118.293  0.00  0.00     0.161 C 
ATOM      2  C   LIG d   1      -6.138  91.618 117.695  0.00  0.00     0.016 C 
ATOM      3  C   LIG d   1      -5.385  90.595 117.075  0.00  0.00     0.038 C 
ATOM      4  C   LIG d   1      -3.984  90.560 117.143  0.00  0.00     0.028 C 
ATOM      5  C   LIG d   1      -3.350  91.939 117.297  0.00  0.00    -0.047 C 
ATOM      6  C   LIG d   1      -4.029  92.674 118.476  0.00  0.00     0.091 C 
ENDROOT
BRANCH   1   7
ATOM      7  O   LIG d   1      -6.201  93.018 119.556  0.00  0.00    -0.368 OA
BRANCH   7   8
ATOM      8  C   LIG d   1      -7.364  93.881 119.509  0.00  0.00     0.119 C 
BRANCH   8   9
ATOM      9  C   LIG d   1      -6.881  95.323 119.755  0.00  0.00     0.028 C 
ATOM     10  C   LIG d   1      -6.916  96.180 118.478  0.00  0.00     0.006 C 
ENDBRANCH   8   9
BRANCH   8  11
ATOM     11  C   LIG d   1      -8.331  93.576 120.657  0.00  0.00     0.028 C 
ATOM     12  C   LIG d   1      -8.301  92.100 121.085  0.00  0.00     0.006 C 
ENDBRANCH   8  11
ENDBRANCH   7   8
ENDBRANCH   1   7
BRANCH   6  13
ATOM     13  N   LIG d   1      -3.526  94.062 118.642  0.00  0.00    -0.311 N 
ATOM     14  C   LIG d   1      -2.536  94.389 119.471  0.00  0.00     0.210 C 
ATOM     15  C   LIG d   1      -2.187  95.880 119.505  0.00  0.00     0.109 C 
ATOM     16  O   LIG d   1      -1.893  93.581 120.158  0.00  0.00    -0.276 OA
ATOM     17  H   LIG d   1      -3.971  94.777 118.100  0.00  0.00     0.149 HD
ENDBRANCH   6  13
BRANCH   5  18
ATOM     18  N   LIG d   1      -1.902  91.744 117.495  0.00  0.00     0.381 N 
ATOM     19  H   LIG d   1      -1.679  90.770 117.434  0.00  0.00    -0.090 HD
ATOM     20  H   LIG d   1      -1.652  92.067 118.413  0.00  0.00    -0.090 HD
ATOM     21  H   LIG d   1      -1.392  92.252 116.806  0.00  0.00    -0.090 HD
ENDBRANCH   5  18
BRANCH   3  22
ATOM     22  C   LIG d   1      -6.033  89.613 116.341  0.00  0.00     0.382 C 
ATOM     23  O   LIG d   1      -5.421  89.005 115.430  0.00  0.00    -0.241 OA
ATOM     24  O   LIG d   1      -7.234  89.359 116.549  0.00  0.00    -0.241 OA
ENDBRANCH   3  22
TORSDOF 7
ENDMDL
MODEL 5
REMARK VINA RESULT:      -5.0      2.547      5.011
REMARK  7 active torsions:
REMARK  status: ('A' for Active; 'I' for Inactive)
REMARK    1  A    between atoms: C_2  and  C_3 
REMARK    2  A    between atoms: C_3  and  O_6 
REMARK    3  A    between atoms: C_3  and  C_4 
REMARK    4  A    between atoms: C_7  and  O_6 
REMARK    5  A    between atoms: C_9  and  C_10 
REMARK    6  A    between atoms: N_15  and  C_14 
REMARK    7  A    between atoms: N_20  and  C_19 
REMARK       I    between atoms: C_22  and  N_20 
ROOT
ATOM      1  C   LIG d   1      -4.086  92.367 117.573  0.00  0.00     0.161 C 
ATOM      2  C   LIG d   1      -5.309  91.796 117.184  0.00  0.00     0.016 C 
ATOM      3  C   LIG d   1      -5.454  90.435 116.830  0.00  0.00     0.038 C 
ATOM      4  C   LIG d   1      -4.409  89.512 116.988  0.00  0.00     0.028 C 
ATOM      5  C   LIG d   1      -3.024  90.144 116.897  0.00  0.00    -0.047 C 
ATOM      6  C   LIG d   1      -2.959  91.352 117.858  0.00  0.00     0.091 C 
ENDROOT
BRANCH   1   7
ATOM      7  O   LIG d   1      -4.288  93.225 118.713  0.00  0.00    -0.368 OA
BRANCH   7   8
ATOM      8  C   LIG d   1      -5.636  93.272 119.244  0.00  0.00     0.119 C 
BRANCH   8   9
ATOM      9  C   LIG d   1      -5.998  94.754 119.457  0.00  0.00     0.028 C 
ATOM     10  C   LIG d   1      -6.986  95.274 118.399  0.00  0.00     0.006 C 
ENDBRANCH   8   9
BRANCH   8  11
ATOM     11  C   LIG d   1      -5.709  92.633 120.635  0.00  0.00     0.028 C 
ATOM     12  C   LIG d   1      -6.466  91.296 120.636  0.00  0.00     0.006 C 
ENDBRANCH   8  11
ENDBRANCH   7   8
ENDBRANCH   1   7
BRANCH   6  13
ATOM     13  N   LIG d   1      -1.666  92.079 117.769  0.00  0.00    -0.311 N 
ATOM     14  C   LIG d   1      -0.628  91.828 118.565  0.00  0.00     0.210 C 
ATOM     15  C   LIG d   1       0.603  92.706 118.317  0.00  0.00     0.109 C 
ATOM     16  O   LIG d   1      -0.599  90.941 119.431  0.00  0.00    -0.276 OA
ATOM     17  H   LIG d   1      -1.592  92.794 117.072  0.00  0.00     0.149 HD
ENDBRANCH   6  13
BRANCH   5  18
ATOM     18  N   LIG d   1      -2.035  89.097 117.216  0.00  0.00     0.381 N 
ATOM     19  H   LIG d   1      -1.149  89.517 117.413  0.00  0.00    -0.090 HD
ATOM     20  H   LIG d   1      -1.928  88.496 116.418  0.00  0.00    -0.090 HD
ATOM     21  H   LIG d   1      -2.342  88.566 118.001  0.00  0.00    -0.090 HD
ENDBRANCH   5  18
BRANCH   3  22
ATOM     22  C   LIG d   1      -6.645  89.992 116.274  0.00  0.00     0.382 C 
ATOM     23  O   LIG d   1      -7.279  90.730 115.482  0.00  0.00    -0.241 OA
ATOM     24  O   LIG d   1      -7.115  88.883 116.588  0.00  0.00    -0.241 OA
ENDBRANCH   3  22
TORSDOF 7
ENDMDL
MODEL 6
REMARK VINA RESULT:      -4.9      2.524      3.938
REMARK  7 active torsions:
REMARK  status: ('A' for Active; 'I' for Inactive)
REMARK    1  A    between atoms: C_2  and  C_3 
REMARK    2  A    between atoms: C_3  and  O_6 
REMARK    3  A    between atoms: C_3  and  C_4 
REMARK    4  A    between atoms: C_7  and  O_6 
REMARK    5  A    between atoms: C_9  and  C_10 
REMARK    6  A    between atoms: N_15  and  C_14 
REMARK    7  A    between atoms: N_20  and  C_19 
REMARK       I    between atoms: C_22  and  N_20 
ROOT
ATOM      1  C   LIG d   1      -4.243  91.320 119.072  0.00  0.00     0.161 C 
ATOM      2  C   LIG d   1      -4.669  90.362 118.137  0.00  0.00     0.016 C 
ATOM      3  C   LIG d   1      -5.625  90.629 117.129  0.00  0.00     0.038 C 
ATOM      4  C   LIG d   1      -6.110  91.923 116.892  0.00  0.00     0.028 C 
ATOM      5  C   LIG d   1      -6.090  92.814 118.130  0.00  0.00    -0.047 C 
ATOM      6  C   LIG d   1      -4.679  92.767 118.759  0.00  0.00     0.091 C 
ENDROOT
BRANCH   1   7
ATOM      7  O   LIG d   1      -2.812  91.250 119.225  0.00  0.00    -0.368 OA
BRANCH   7   8
ATOM      8  C   LIG d   1      -2.027  91.670 118.083  0.00  0.00     0.119 C 
BRANCH   8   9
ATOM      9  C   LIG d   1      -1.237  90.443 117.587  0.00  0.00     0.028 C 
ATOM     10  C   LIG d   1      -0.954  89.433 118.711  0.00  0.00     0.006 C 
ENDBRANCH   8   9
BRANCH   8  11
ATOM     11  C   LIG d   1      -0.966  92.700 118.484  0.00  0.00     0.028 C 
ATOM     12  C   LIG d   1      -0.587  93.644 117.333  0.00  0.00     0.006 C 
ENDBRANCH   8  11
ENDBRANCH   7   8
ENDBRANCH   1   7
BRANCH   6  13
ATOM     13  N   LIG d   1      -4.596  93.544 120.023  0.00  0.00    -0.311 N 
ATOM     14  C   LIG d   1      -3.855  94.642 120.161  0.00  0.00     0.210 C 
ATOM     15  C   LIG d   1      -3.895  95.279 121.553  0.00  0.00     0.109 C 
ATOM     16  O   LIG d   1      -3.194  95.168 119.253  0.00  0.00    -0.276 OA
ATOM     17  H   LIG d   1      -5.125  93.206 120.803  0.00  0.00     0.149 HD
ENDBRANCH   6  13
BRANCH   5  18
ATOM     18  N   LIG d   1      -6.491  94.170 117.711  0.00  0.00     0.381 N 
ATOM     19  H   LIG d   1      -7.417  94.147 117.333  0.00  0.00    -0.090 HD
ATOM     20  H   LIG d   1      -5.865  94.486 116.991  0.00  0.00    -0.090 HD
ATOM     21  H   LIG d   1      -6.456  94.792 118.488  0.00  0.00    -0.090 HD
ENDBRANCH   5  18
BRANCH   3  22
ATOM     22  C   LIG d   1      -6.134  89.585 116.371  0.00  0.00     0.382 C 
ATOM     23  O   LIG d   1      -7.370  89.374 116.346  0.00  0.00    -0.241 OA
ATOM     24  O   LIG d   1      -5.369  88.825 115.748  0.00  0.00    -0.241 OA
ENDBRANCH   3  22
TORSDOF 7
ENDMDL
MODEL 7
REMARK VINA RESULT:      -4.8      2.572      4.214
REMARK  7 active torsions:
REMARK  status: ('A' for Active; 'I' for Inactive)
REMARK    1  A    between atoms: C_2  and  C_3 
REMARK    2  A    between atoms: C_3  and  O_6 
REMARK    3  A    between atoms: C_3  and  C_4 
REMARK    4  A    between atoms: C_7  and  O_6 
REMARK    5  A    between atoms: C_9  and  C_10 
REMARK    6  A    between atoms: N_15  and  C_14 
REMARK    7  A    between atoms: N_20  and  C_19 
REMARK       I    between atoms: C_22  and  N_20 
ROOT
ATOM      1  C   LIG d   1      -4.640  92.402 118.014  0.00  0.00     0.161 C 
ATOM      2  C   LIG d   1      -5.942  92.919 118.119  0.00  0.00     0.016 C 
ATOM      3  C   LIG d   1      -6.276  94.027 118.931  0.00  0.00     0.038 C 
ATOM      4  C   LIG d   1      -5.297  94.793 119.580  0.00  0.00     0.028 C 
ATOM      5  C   LIG d   1      -4.032  94.006 119.908  0.00  0.00    -0.047 C 
ATOM      6  C   LIG d   1      -3.539  93.292 118.629  0.00  0.00     0.091 C 
ENDROOT
BRANCH   1   7
ATOM      7  O   LIG d   1      -4.339  92.113 116.635  0.00  0.00    -0.368 OA
BRANCH   7   8
ATOM      8  C   LIG d   1      -4.343  90.713 116.262  0.00  0.00     0.119 C 
BRANCH   8   9
ATOM      9  C   LIG d   1      -5.673  90.432 115.535  0.00  0.00     0.028 C 
ATOM     10  C   LIG d   1      -6.648  89.608 116.393  0.00  0.00     0.006 C 
ENDBRANCH   8   9
BRANCH   8  11
ATOM     11  C   LIG d   1      -4.357  89.807 117.496  0.00  0.00     0.028 C 
ATOM     12  C   LIG d   1      -3.043  89.031 117.680  0.00  0.00     0.006 C 
ENDBRANCH   8  11
ENDBRANCH   7   8
ENDBRANCH   1   7
BRANCH   6  13
ATOM     13  N   LIG d   1      -2.354  92.432 118.880  0.00  0.00    -0.311 N 
ATOM     14  C   LIG d   1      -1.215  92.536 118.198  0.00  0.00     0.210 C 
ATOM     15  C   LIG d   1      -0.125  91.539 118.603  0.00  0.00     0.109 C 
ATOM     16  O   LIG d   1      -0.992  93.381 117.317  0.00  0.00    -0.276 OA
ATOM     17  H   LIG d   1      -2.436  91.740 119.599  0.00  0.00     0.149 HD
ENDBRANCH   6  13
BRANCH   5  18
ATOM     18  N   LIG d   1      -3.046  94.956 120.456  0.00  0.00     0.381 N 
ATOM     19  H   LIG d   1      -3.435  95.431 121.246  0.00  0.00    -0.090 HD
ATOM     20  H   LIG d   1      -2.828  95.640 119.753  0.00  0.00    -0.090 HD
ATOM     21  H   LIG d   1      -2.218  94.471 120.726  0.00  0.00    -0.090 HD
ENDBRANCH   5  18
BRANCH   3  22
ATOM     22  C   LIG d   1      -7.609  94.356 119.131  0.00  0.00     0.382 C 
ATOM     23  O   LIG d   1      -7.943  95.036 120.131  0.00  0.00    -0.241 OA
ATOM     24  O   LIG d   1      -8.485  93.943 118.348  0.00  0.00    -0.241 OA
ENDBRANCH   3  22
TORSDOF 7
ENDMDL
MODEL 8
REMARK VINA RESULT:      -4.8      3.048      4.363
REMARK  7 active torsions:
REMARK  status: ('A' for Active; 'I' for Inactive)
REMARK    1  A    between atoms: C_2  and  C_3 
REMARK    2  A    between atoms: C_3  and  O_6 
REMARK    3  A    between atoms: C_3  and  C_4 
REMARK    4  A    between atoms: C_7  and  O_6 
REMARK    5  A    between atoms: C_9  and  C_10 
REMARK    6  A    between atoms: N_15  and  C_14 
REMARK    7  A    between atoms: N_20  and  C_19 
REMARK       I    between atoms: C_22  and  N_20 
ROOT
ATOM      1  C   LIG d   1      -5.253  91.065 119.895  0.00  0.00     0.161 C 
ATOM      2  C   LIG d   1      -6.624  91.229 120.155  0.00  0.00     0.016 C 
ATOM      3  C   LIG d   1      -7.275  92.484 120.137  0.00  0.00     0.038 C 
ATOM      4  C   LIG d   1      -6.625  93.650 119.707  0.00  0.00     0.028 C 
ATOM      5  C   LIG d   1      -5.116  93.617 119.921  0.00  0.00    -0.047 C 
ATOM      6  C   LIG d   1      -4.552  92.311 119.315  0.00  0.00     0.091 C 
ENDROOT
BRANCH   1   7
ATOM      7  O   LIG d   1      -5.052  89.929 119.032  0.00  0.00    -0.368 OA
BRANCH   7   8
ATOM      8  C   LIG d   1      -4.861  90.223 117.626  0.00  0.00     0.119 C 
BRANCH   8   9
ATOM      9  C   LIG d   1      -6.133  89.772 116.882  0.00  0.00     0.028 C 
ATOM     10  C   LIG d   1      -6.594  90.797 115.832  0.00  0.00     0.006 C 
ENDBRANCH   8   9
BRANCH   8  11
ATOM     11  C   LIG d   1      -3.725  89.386 117.030  0.00  0.00     0.028 C 
ATOM     12  C   LIG d   1      -2.780  88.818 118.101  0.00  0.00     0.006 C 
ENDBRANCH   8  11
ENDBRANCH   7   8
ENDBRANCH   1   7
BRANCH   6  13
ATOM     13  N   LIG d   1      -3.093  92.159 119.555  0.00  0.00    -0.311 N 
ATOM     14  C   LIG d   1      -2.164  92.488 118.659  0.00  0.00     0.210 C 
ATOM     15  C   LIG d   1      -0.720  92.232 119.101  0.00  0.00     0.109 C 
ATOM     16  O   LIG d   1      -2.398  92.997 117.553  0.00  0.00    -0.276 OA
ATOM     17  H   LIG d   1      -2.813  91.782 120.440  0.00  0.00     0.149 HD
ENDBRANCH   6  13
BRANCH   5  18
ATOM     18  N   LIG d   1      -4.551  94.832 119.304  0.00  0.00     0.381 N 
ATOM     19  H   LIG d   1      -4.412  94.681 118.325  0.00  0.00    -0.090 HD
ATOM     20  H   LIG d   1      -3.659  95.025 119.723  0.00  0.00    -0.090 HD
ATOM     21  H   LIG d   1      -5.166  95.603 119.444  0.00  0.00    -0.090 HD
ENDBRANCH   5  18
BRANCH   3  22
ATOM     22  C   LIG d   1      -8.581  92.587 120.591  0.00  0.00     0.382 C 
ATOM     23  O   LIG d   1      -9.403  93.310 119.978  0.00  0.00    -0.241 OA
ATOM     24  O   LIG d   1      -8.936  92.001 121.632  0.00  0.00    -0.241 OA
ENDBRANCH   3  22
TORSDOF 7
ENDMDL
MODEL 9
REMARK VINA RESULT:      -4.7      2.223      5.702
REMARK  7 active torsions:
REMARK  status: ('A' for Active; 'I' for Inactive)
REMARK    1  A    between atoms: C_2  and  C_3 
REMARK    2  A    between atoms: C_3  and  O_6 
REMARK    3  A    between atoms: C_3  and  C_4 
REMARK    4  A    between atoms: C_7  and  O_6 
REMARK    5  A    between atoms: C_9  and  C_10 
REMARK    6  A    between atoms: N_15  and  C_14 
REMARK    7  A    between atoms: N_20  and  C_19 
REMARK       I    between atoms: C_22  and  N_20 
ROOT
ATOM      1  C   LIG d   1      -2.671  92.245 118.097  0.00  0.00     0.161 C 
ATOM      2  C   LIG d   1      -2.507  93.581 118.498  0.00  0.00     0.016 C 
ATOM      3  C   LIG d   1      -1.267  94.123 118.911  0.00  0.00     0.038 C 
ATOM      4  C   LIG d   1      -0.070  93.399 118.806  0.00  0.00     0.028 C 
ATOM      5  C   LIG d   1      -0.267  91.889 118.884  0.00  0.00    -0.047 C 
ATOM      6  C   LIG d   1      -1.356  91.471 117.869  0.00  0.00     0.091 C 
ENDROOT
BRANCH   1   7
ATOM      7  O   LIG d   1      -3.497  92.188 116.916  0.00  0.00    -0.368 OA
BRANCH   7   8
ATOM      8  C   LIG d   1      -4.789  91.551 117.072  0.00  0.00     0.119 C 
BRANCH   8   9
ATOM      9  C   LIG d   1      -4.836  90.356 116.101  0.00  0.00     0.028 C 
ATOM     10  C   LIG d   1      -6.211  90.198 115.431  0.00  0.00     0.006 C 
ENDBRANCH   8   9
BRANCH   8  11
ATOM     11  C   LIG d   1      -5.924  92.479 116.630  0.00  0.00     0.028 C 
ATOM     12  C   LIG d   1      -6.424  93.390 117.762  0.00  0.00     0.006 C 
ENDBRANCH   8  11
ENDBRANCH   7   8
ENDBRANCH   1   7
BRANCH   6  13
ATOM     13  N   LIG d   1      -1.670  90.020 117.940  0.00  0.00    -0.311 N 
ATOM     14  C   LIG d   1      -1.028  89.096 117.227  0.00  0.00     0.210 C 
ATOM     15  C   LIG d   1      -1.523  87.661 117.434  0.00  0.00     0.109 C 
ATOM     16  O   LIG d   1      -0.075  89.325 116.467  0.00  0.00    -0.276 OA
ATOM     17  H   LIG d   1      -2.409  89.743 118.555  0.00  0.00     0.149 HD
ENDBRANCH   6  13
BRANCH   5  18
ATOM     18  N   LIG d   1       1.040  91.255 118.623  0.00  0.00     0.381 N 
ATOM     19  H   LIG d   1       1.761  91.756 119.103  0.00  0.00    -0.090 HD
ATOM     20  H   LIG d   1       1.230  91.297 117.637  0.00  0.00    -0.090 HD
ATOM     21  H   LIG d   1       1.025  90.306 118.926  0.00  0.00    -0.090 HD
ENDBRANCH   5  18
BRANCH   3  22
ATOM     22  C   LIG d   1      -1.224  95.389 119.474  0.00  0.00     0.382 C 
ATOM     23  O   LIG d   1      -1.830  96.340 118.924  0.00  0.00    -0.241 OA
ATOM     24  O   LIG d   1      -0.551  95.602 120.500  0.00  0.00    -0.241 OA
ENDBRANCH   3  22
TORSDOF 7
ENDMDL
