MODEL 1
REMARK VINA RESULT:      -5.1      0.000      0.000
REMARK  7 active torsions:
REMARK  status: ('A' for Active; 'I' for Inactive)
REMARK    1  A    between atoms: C_2  and  C_3 
REMARK    2  A    between atoms: C_3  and  O_6 
REMARK    3  A    between atoms: C_3  and  C_4 
REMARK    4  A    between atoms: C_7  and  O_6 
REMARK    5  A    between atoms: C_9  and  C_10 
REMARK    6  A    between atoms: N_15  and  C_14 
REMARK    7  A    between atoms: N_20  and  C_19 
REMARK       I    between atoms: C_22  and  N_20 
ROOT
ATOM      1  C   LIG d   1      -4.149  91.238 117.186  0.00  0.00     0.161 C 
ATOM      2  C   LIG d   1      -3.038  90.415 116.941  0.00  0.00     0.016 C 
ATOM      3  C   LIG d   1      -1.764  90.637 117.512  0.00  0.00     0.038 C 
ATOM      4  C   LIG d   1      -1.552  91.616 118.494  0.00  0.00     0.028 C 
ATOM      5  C   LIG d   1      -2.520  92.790 118.397  0.00  0.00    -0.047 C 
ATOM      6  C   LIG d   1      -3.965  92.246 118.341  0.00  0.00     0.091 C 
ENDROOT
BRANCH   1   7
ATOM      7  O   LIG d   1      -5.318  90.426 117.411  0.00  0.00    -0.368 OA
BRANCH   7   8
ATOM      8  C   LIG d   1      -6.251  90.332 116.306  0.00  0.00     0.119 C 
BRANCH   8   9
ATOM      9  C   LIG d   1      -6.092  91.607 115.456  0.00  0.00     0.028 C 
ATOM     10  C   LIG d   1      -7.366  92.470 115.449  0.00  0.00     0.006 C 
ENDBRANCH   8   9
BRANCH   8  11
ATOM     11  C   LIG d   1      -7.701  90.349 116.798  0.00  0.00     0.028 C 
ATOM     12  C   LIG d   1      -8.512  89.139 116.307  0.00  0.00     0.006 C 
ENDBRANCH   8  11
ENDBRANCH   7   8
ENDBRANCH   1   7
BRANCH   6  13
ATOM     13  N   LIG d   1      -4.971  93.325 118.160  0.00  0.00    -0.311 N 
ATOM     14  C   LIG d   1      -6.105  93.394 118.856  0.00  0.00     0.210 C 
ATOM     15  C   LIG d   1      -7.011  94.576 118.499  0.00  0.00     0.109 C 
ATOM     16  O   LIG d   1      -6.432  92.606 119.756  0.00  0.00    -0.276 OA
ATOM     17  H   LIG d   1      -4.771  94.024 117.472  0.00  0.00     0.149 HD
ENDBRANCH   6  13
BRANCH   5  18
ATOM     18  N   LIG d   1      -2.276  93.666 119.559  0.00  0.00     0.381 N 
ATOM     19  H   LIG d   1      -3.091  94.216 119.745  0.00  0.00    -0.090 HD
ATOM     20  H   LIG d   1      -1.518  94.288 119.344  0.00  0.00    -0.090 HD
ATOM     21  H   LIG d   1      -2.048  93.116 120.358  0.00  0.00    -0.090 HD
ENDBRANCH   5  18
BRANCH   3  22
ATOM     22  C   LIG d   1      -0.675  89.899 117.072  0.00  0.00     0.382 C 
ATOM     23  O   LIG d   1       0.323  90.483 116.586  0.00  0.00    -0.241 OA
ATOM     24  O   LIG d   1      -0.697  88.654 117.115  0.00  0.00    -0.241 OA
ENDBRANCH   3  22
TORSDOF 7
ENDMDL
MODEL 2
REMARK VINA RESULT:      -5.1      2.451      4.659
REMARK  7 active torsions:
REMARK  status: ('A' for Active; 'I' for Inactive)
REMARK    1  A    between atoms: C_2  and  C_3 
REMARK    2  A    between atoms: C_3  and  O_6 
REMARK    3  A    between atoms: C_3  and  C_4 
REMARK    4  A    between atoms: C_7  and  O_6 
REMARK    5  A    between atoms: C_9  and  C_10 
REMARK    6  A    between atoms: N_15  and  C_14 
REMARK    7  A    between atoms: N_20  and  C_19 
REMARK       I    between atoms: C_22  and  N_20 
ROOT
ATOM      1  C   LIG d   1      -5.543  91.954 119.140  0.00  0.00     0.161 C 
ATOM      2  C   LIG d   1      -4.720  91.136 118.348  0.00  0.00     0.016 C 
ATOM      3  C   LIG d   1      -4.885  90.985 116.952  0.00  0.00     0.038 C 
ATOM      4  C   LIG d   1      -5.796  91.765 116.224  0.00  0.00     0.028 C 
ATOM      5  C   LIG d   1      -6.989  92.233 117.051  0.00  0.00    -0.047 C 
ATOM      6  C   LIG d   1      -6.471  92.898 118.347  0.00  0.00     0.091 C 
ENDROOT
BRANCH   1   7
ATOM      7  O   LIG d   1      -4.737  92.707 120.067  0.00  0.00    -0.368 OA
BRANCH   7   8
ATOM      8  C   LIG d   1      -4.207  93.963 119.577  0.00  0.00     0.119 C 
BRANCH   8   9
ATOM      9  C   LIG d   1      -2.679  93.804 119.454  0.00  0.00     0.028 C 
ATOM     10  C   LIG d   1      -2.185  93.974 118.008  0.00  0.00     0.006 C 
ENDBRANCH   8   9
BRANCH   8  11
ATOM     11  C   LIG d   1      -4.417  95.091 120.592  0.00  0.00     0.028 C 
ATOM     12  C   LIG d   1      -4.690  96.449 119.926  0.00  0.00     0.006 C 
ENDBRANCH   8  11
ENDBRANCH   7   8
ENDBRANCH   1   7
BRANCH   6  13
ATOM     13  N   LIG d   1      -7.576  93.309 119.253  0.00  0.00    -0.311 N 
ATOM     14  C   LIG d   1      -8.103  94.532 119.258  0.00  0.00     0.210 C 
ATOM     15  C   LIG d   1      -9.218  94.750 120.285  0.00  0.00     0.109 C 
ATOM     16  O   LIG d   1      -7.775  95.447 118.488  0.00  0.00    -0.276 OA
ATOM     17  H   LIG d   1      -7.924  92.619 119.889  0.00  0.00     0.149 HD
ENDBRANCH   6  13
BRANCH   5  18
ATOM     18  N   LIG d   1      -7.784  93.147 116.209  0.00  0.00     0.381 N 
ATOM     19  H   LIG d   1      -7.291  93.341 115.360  0.00  0.00    -0.090 HD
ATOM     20  H   LIG d   1      -7.914  94.012 116.703  0.00  0.00    -0.090 HD
ATOM     21  H   LIG d   1      -8.668  92.737 116.002  0.00  0.00    -0.090 HD
ENDBRANCH   5  18
BRANCH   3  22
ATOM     22  C   LIG d   1      -4.159  90.016 116.275  0.00  0.00     0.382 C 
ATOM     23  O   LIG d   1      -4.729  89.282 115.432  0.00  0.00    -0.241 OA
ATOM     24  O   LIG d   1      -2.953  89.838 116.529  0.00  0.00    -0.241 OA
ENDBRANCH   3  22
TORSDOF 7
ENDMDL
MODEL 3
REMARK VINA RESULT:      -5.0      2.552      4.808
REMARK  7 active torsions:
REMARK  status: ('A' for Active; 'I' for Inactive)
REMARK    1  A    between atoms: C_2  and  C_3 
REMARK    2  A    between atoms: C_3  and  O_6 
REMARK    3  A    between atoms: C_3  and  C_4 
REMARK    4  A    between atoms: C_7  and  O_6 
REMARK    5  A    between atoms: C_9  and  C_10 
REMARK    6  A    between atoms: N_15  and  C_14 
REMARK    7  A    between atoms: N_20  and  C_19 
REMARK       I    between atoms: C_22  and  N_20 
ROOT
ATOM      1  C   LIG d   1      -5.954  93.200 118.482  0.00  0.00     0.161 C 
ATOM      2  C   LIG d   1      -6.685  92.134 117.931  0.00  0.00     0.016 C 
ATOM      3  C   LIG d   1      -6.089  91.062 117.228  0.00  0.00     0.038 C 
ATOM      4  C   LIG d   1      -4.697  90.905 117.158  0.00  0.00     0.028 C 
ATOM      5  C   LIG d   1      -3.932  92.220 117.263  0.00  0.00    -0.047 C 
ATOM      6  C   LIG d   1      -4.425  92.988 118.511  0.00  0.00     0.091 C 
ENDROOT
BRANCH   1   7
ATOM      7  O   LIG d   1      -6.444  93.497 119.804  0.00  0.00    -0.368 OA
BRANCH   7   8
ATOM      8  C   LIG d   1      -7.785  94.040 119.879  0.00  0.00     0.119 C 
BRANCH   8   9
ATOM      9  C   LIG d   1      -7.738  95.471 119.308  0.00  0.00     0.028 C 
ATOM     10  C   LIG d   1      -8.744  95.679 118.163  0.00  0.00     0.006 C 
ENDBRANCH   8   9
BRANCH   8  11
ATOM     11  C   LIG d   1      -8.241  94.198 121.333  0.00  0.00     0.028 C 
ATOM     12  C   LIG d   1      -9.739  93.910 121.522  0.00  0.00     0.006 C 
ENDBRANCH   8  11
ENDBRANCH   7   8
ENDBRANCH   1   7
BRANCH   6  13
ATOM     13  N   LIG d   1      -3.789  94.324 118.642  0.00  0.00    -0.311 N 
ATOM     14  C   LIG d   1      -2.682  94.543 119.351  0.00  0.00     0.210 C 
ATOM     15  C   LIG d   1      -2.204  95.998 119.371  0.00  0.00     0.109 C 
ATOM     16  O   LIG d   1      -2.033  93.664 119.938  0.00  0.00    -0.276 OA
ATOM     17  H   LIG d   1      -4.232  95.089 118.172  0.00  0.00     0.149 HD
ENDBRANCH   6  13
BRANCH   5  18
ATOM     18  N   LIG d   1      -2.494  91.896 117.314  0.00  0.00     0.381 N 
ATOM     19  H   LIG d   1      -2.055  92.168 116.457  0.00  0.00    -0.090 HD
ATOM     20  H   LIG d   1      -2.388  90.903 117.423  0.00  0.00    -0.090 HD
ATOM     21  H   LIG d   1      -2.065  92.369 118.079  0.00  0.00    -0.090 HD
ENDBRANCH   5  18
BRANCH   3  22
ATOM     22  C   LIG d   1      -6.890  90.154 116.552  0.00  0.00     0.382 C 
ATOM     23  O   LIG d   1      -8.045  89.904 116.971  0.00  0.00    -0.241 OA
ATOM     24  O   LIG d   1      -6.455  89.550 115.553  0.00  0.00    -0.241 OA
ENDBRANCH   3  22
TORSDOF 7
ENDMDL
MODEL 4
REMARK VINA RESULT:      -5.0      2.265      6.112
REMARK  7 active torsions:
REMARK  status: ('A' for Active; 'I' for Inactive)
REMARK    1  A    between atoms: C_2  and  C_3 
REMARK    2  A    between atoms: C_3  and  O_6 
REMARK    3  A    between atoms: C_3  and  C_4 
REMARK    4  A    between atoms: C_7  and  O_6 
REMARK    5  A    between atoms: C_9  and  C_10 
REMARK    6  A    between atoms: N_15  and  C_14 
REMARK    7  A    between atoms: N_20  and  C_19 
REMARK       I    between atoms: C_22  and  N_20 
ROOT
ATOM      1  C   LIG d   1      -3.933  92.262 117.883  0.00  0.00     0.161 C 
ATOM      2  C   LIG d   1      -5.231  92.757 117.673  0.00  0.00     0.016 C 
ATOM      3  C   LIG d   1      -6.159  92.158 116.791  0.00  0.00     0.038 C 
ATOM      4  C   LIG d   1      -5.902  90.927 116.169  0.00  0.00     0.028 C 
ATOM      5  C   LIG d   1      -4.416  90.652 115.959  0.00  0.00    -0.047 C 
ATOM      6  C   LIG d   1      -3.674  90.858 117.299  0.00  0.00     0.091 C 
ENDROOT
BRANCH   1   7
ATOM      7  O   LIG d   1      -3.624  92.284 119.291  0.00  0.00    -0.368 OA
BRANCH   7   8
ATOM      8  C   LIG d   1      -2.537  93.154 119.692  0.00  0.00     0.119 C 
BRANCH   8   9
ATOM      9  C   LIG d   1      -2.203  94.061 118.491  0.00  0.00     0.028 C 
ATOM     10  C   LIG d   1      -0.725  94.484 118.468  0.00  0.00     0.006 C 
ENDBRANCH   8   9
BRANCH   8  11
ATOM     11  C   LIG d   1      -1.258  92.357 119.966  0.00  0.00     0.028 C 
ATOM     12  C   LIG d   1      -1.503  91.120 120.843  0.00  0.00     0.006 C 
ENDBRANCH   8  11
ENDBRANCH   7   8
ENDBRANCH   1   7
BRANCH   6  13
ATOM     13  N   LIG d   1      -2.203  90.692 117.163  0.00  0.00    -0.311 N 
ATOM     14  C   LIG d   1      -1.566  89.553 117.429  0.00  0.00     0.210 C 
ATOM     15  C   LIG d   1      -0.047  89.603 117.243  0.00  0.00     0.109 C 
ATOM     16  O   LIG d   1      -2.119  88.497 117.771  0.00  0.00    -0.276 OA
ATOM     17  H   LIG d   1      -1.680  91.490 116.860  0.00  0.00     0.149 HD
ENDBRANCH   6  13
BRANCH   5  18
ATOM     18  N   LIG d   1      -4.287  89.281 115.430  0.00  0.00     0.381 N 
ATOM     19  H   LIG d   1      -4.823  89.190 114.591  0.00  0.00    -0.090 HD
ATOM     20  H   LIG d   1      -4.650  88.636 116.109  0.00  0.00    -0.090 HD
ATOM     21  H   LIG d   1      -3.329  89.076 115.245  0.00  0.00    -0.090 HD
ENDBRANCH   5  18
BRANCH   3  22
ATOM     22  C   LIG d   1      -7.344  92.812 116.492  0.00  0.00     0.382 C 
ATOM     23  O   LIG d   1      -7.957  92.544 115.430  0.00  0.00    -0.241 OA
ATOM     24  O   LIG d   1      -7.786  93.697 117.249  0.00  0.00    -0.241 OA
ENDBRANCH   3  22
TORSDOF 7
ENDMDL
MODEL 5
REMARK VINA RESULT:      -5.0      2.080      5.370
REMARK  7 active torsions:
REMARK  status: ('A' for Active; 'I' for Inactive)
REMARK    1  A    between atoms: C_2  and  C_3 
REMARK    2  A    between atoms: C_3  and  O_6 
REMARK    3  A    between atoms: C_3  and  C_4 
REMARK    4  A    between atoms: C_7  and  O_6 
REMARK    5  A    between atoms: C_9  and  C_10 
REMARK    6  A    between atoms: N_15  and  C_14 
REMARK    7  A    between atoms: N_20  and  C_19 
REMARK       I    between atoms: C_22  and  N_20 
ROOT
ATOM      1  C   LIG d   1      -4.147  90.858 117.595  0.00  0.00     0.161 C 
ATOM      2  C   LIG d   1      -5.246  90.387 116.859  0.00  0.00     0.016 C 
ATOM      3  C   LIG d   1      -6.436  91.129 116.676  0.00  0.00     0.038 C 
ATOM      4  C   LIG d   1      -6.549  92.463 117.094  0.00  0.00     0.028 C 
ATOM      5  C   LIG d   1      -5.654  92.804 118.281  0.00  0.00    -0.047 C 
ATOM      6  C   LIG d   1      -4.209  92.354 117.965  0.00  0.00     0.091 C 
ENDROOT
BRANCH   1   7
ATOM      7  O   LIG d   1      -2.924  90.566 116.889  0.00  0.00    -0.368 OA
BRANCH   7   8
ATOM      8  C   LIG d   1      -2.245  89.344 117.268  0.00  0.00     0.119 C 
BRANCH   8   9
ATOM      9  C   LIG d   1      -2.611  89.047 118.735  0.00  0.00     0.028 C 
ATOM     10  C   LIG d   1      -1.741  87.934 119.343  0.00  0.00     0.006 C 
ENDBRANCH   8   9
BRANCH   8  11
ATOM     11  C   LIG d   1      -0.724  89.525 117.258  0.00  0.00     0.028 C 
ATOM     12  C   LIG d   1      -0.297  90.984 117.487  0.00  0.00     0.006 C 
ENDBRANCH   8  11
ENDBRANCH   7   8
ENDBRANCH   1   7
BRANCH   6  13
ATOM     13  N   LIG d   1      -3.284  92.575 119.107  0.00  0.00    -0.311 N 
ATOM     14  C   LIG d   1      -2.515  93.655 119.230  0.00  0.00     0.210 C 
ATOM     15  C   LIG d   1      -1.620  93.674 120.473  0.00  0.00     0.109 C 
ATOM     16  O   LIG d   1      -2.512  94.615 118.444  0.00  0.00    -0.276 OA
ATOM     17  H   LIG d   1      -3.246  91.860 119.807  0.00  0.00     0.149 HD
ENDBRANCH   6  13
BRANCH   5  18
ATOM     18  N   LIG d   1      -5.768  94.255 118.523  0.00  0.00     0.381 N 
ATOM     19  H   LIG d   1      -5.032  94.556 119.130  0.00  0.00    -0.090 HD
ATOM     20  H   LIG d   1      -6.646  94.440 118.975  0.00  0.00    -0.090 HD
ATOM     21  H   LIG d   1      -5.719  94.749 117.660  0.00  0.00    -0.090 HD
ENDBRANCH   5  18
BRANCH   3  22
ATOM     22  C   LIG d   1      -7.543  90.522 116.104  0.00  0.00     0.382 C 
ATOM     23  O   LIG d   1      -7.713  89.284 116.226  0.00  0.00    -0.241 OA
ATOM     24  O   LIG d   1      -8.351  91.188 115.430  0.00  0.00    -0.241 OA
ENDBRANCH   3  22
TORSDOF 7
ENDMDL
MODEL 6
REMARK VINA RESULT:      -5.0      2.227      5.074
REMARK  7 active torsions:
REMARK  status: ('A' for Active; 'I' for Inactive)
REMARK    1  A    between atoms: C_2  and  C_3 
REMARK    2  A    between atoms: C_3  and  O_6 
REMARK    3  A    between atoms: C_3  and  C_4 
REMARK    4  A    between atoms: C_7  and  O_6 
REMARK    5  A    between atoms: C_9  and  C_10 
REMARK    6  A    between atoms: N_15  and  C_14 
REMARK    7  A    between atoms: N_20  and  C_19 
REMARK       I    between atoms: C_22  and  N_20 
ROOT
ATOM      1  C   LIG d   1      -5.139  91.986 118.907  0.00  0.00     0.161 C 
ATOM      2  C   LIG d   1      -5.504  91.136 117.850  0.00  0.00     0.016 C 
ATOM      3  C   LIG d   1      -6.441  91.494 116.852  0.00  0.00     0.038 C 
ATOM      4  C   LIG d   1      -6.965  92.791 116.759  0.00  0.00     0.028 C 
ATOM      5  C   LIG d   1      -7.011  93.524 118.096  0.00  0.00    -0.047 C 
ATOM      6  C   LIG d   1      -5.617  93.446 118.759  0.00  0.00     0.091 C 
ENDROOT
BRANCH   1   7
ATOM      7  O   LIG d   1      -3.711  91.943 119.097  0.00  0.00    -0.368 OA
BRANCH   7   8
ATOM      8  C   LIG d   1      -2.906  91.984 117.892  0.00  0.00     0.119 C 
BRANCH   8   9
ATOM      9  C   LIG d   1      -1.815  90.905 118.028  0.00  0.00     0.028 C 
ATOM     10  C   LIG d   1      -2.157  89.624 117.248  0.00  0.00     0.006 C 
ENDBRANCH   8   9
BRANCH   8  11
ATOM     11  C   LIG d   1      -2.151  93.311 117.771  0.00  0.00     0.028 C 
ATOM     12  C   LIG d   1      -1.914  93.988 119.131  0.00  0.00     0.006 C 
ENDBRANCH   8  11
ENDBRANCH   7   8
ENDBRANCH   1   7
BRANCH   6  13
ATOM     13  N   LIG d   1      -5.596  94.065 120.109  0.00  0.00    -0.311 N 
ATOM     14  C   LIG d   1      -5.215  95.321 120.334  0.00  0.00     0.210 C 
ATOM     15  C   LIG d   1      -5.249  95.755 121.803  0.00  0.00     0.109 C 
ATOM     16  O   LIG d   1      -4.882  96.128 119.452  0.00  0.00    -0.276 OA
ATOM     17  H   LIG d   1      -5.881  93.491 120.879  0.00  0.00     0.149 HD
ENDBRANCH   6  13
BRANCH   5  18
ATOM     18  N   LIG d   1      -7.448  94.908 117.831  0.00  0.00     0.381 N 
ATOM     19  H   LIG d   1      -6.831  95.338 117.171  0.00  0.00    -0.090 HD
ATOM     20  H   LIG d   1      -7.409  95.431 118.688  0.00  0.00    -0.090 HD
ATOM     21  H   LIG d   1      -8.379  94.909 117.475  0.00  0.00    -0.090 HD
ENDBRANCH   5  18
BRANCH   3  22
ATOM     22  C   LIG d   1      -6.891  90.535 115.958  0.00  0.00     0.382 C 
ATOM     23  O   LIG d   1      -8.050  90.616 115.483  0.00  0.00    -0.241 OA
ATOM     24  O   LIG d   1      -6.170  89.566 115.654  0.00  0.00    -0.241 OA
ENDBRANCH   3  22
TORSDOF 7
ENDMDL
MODEL 7
REMARK VINA RESULT:      -4.9      2.295      5.507
REMARK  7 active torsions:
REMARK  status: ('A' for Active; 'I' for Inactive)
REMARK    1  A    between atoms: C_2  and  C_3 
REMARK    2  A    between atoms: C_3  and  O_6 
REMARK    3  A    between atoms: C_3  and  C_4 
REMARK    4  A    between atoms: C_7  and  O_6 
REMARK    5  A    between atoms: C_9  and  C_10 
REMARK    6  A    between atoms: N_15  and  C_14 
REMARK    7  A    between atoms: N_20  and  C_19 
REMARK       I    between atoms: C_22  and  N_20 
ROOT
ATOM      1  C   LIG d   1      -6.347  92.726 117.956  0.00  0.00     0.161 C 
ATOM      2  C   LIG d   1      -7.385  93.629 117.673  0.00  0.00     0.016 C 
ATOM      3  C   LIG d   1      -7.523  94.882 118.315  0.00  0.00     0.038 C 
ATOM      4  C   LIG d   1      -6.539  95.384 119.179  0.00  0.00     0.028 C 
ATOM      5  C   LIG d   1      -5.732  94.294 119.877  0.00  0.00    -0.047 C 
ATOM      6  C   LIG d   1      -5.203  93.304 118.815  0.00  0.00     0.091 C 
ENDROOT
BRANCH   1   7
ATOM      7  O   LIG d   1      -5.825  92.182 116.727  0.00  0.00    -0.368 OA
BRANCH   7   8
ATOM      8  C   LIG d   1      -6.079  90.774 116.495  0.00  0.00     0.119 C 
BRANCH   8   9
ATOM      9  C   LIG d   1      -4.889  90.216 115.690  0.00  0.00     0.028 C 
ATOM     10  C   LIG d   1      -3.630  90.033 116.554  0.00  0.00     0.006 C 
ENDBRANCH   8   9
BRANCH   8  11
ATOM     11  C   LIG d   1      -7.305  90.569 115.601  0.00  0.00     0.028 C 
ATOM     12  C   LIG d   1      -8.303  89.555 116.182  0.00  0.00     0.006 C 
ENDBRANCH   8  11
ENDBRANCH   7   8
ENDBRANCH   1   7
BRANCH   6  13
ATOM     13  N   LIG d   1      -4.473  92.159 119.421  0.00  0.00    -0.311 N 
ATOM     14  C   LIG d   1      -3.150  92.130 119.571  0.00  0.00     0.210 C 
ATOM     15  C   LIG d   1      -2.599  90.847 120.200  0.00  0.00     0.109 C 
ATOM     16  O   LIG d   1      -2.384  93.059 119.272  0.00  0.00    -0.276 OA
ATOM     17  H   LIG d   1      -5.021  91.376 119.720  0.00  0.00     0.149 HD
ENDBRANCH   6  13
BRANCH   5  18
ATOM     18  N   LIG d   1      -4.655  94.955 120.639  0.00  0.00     0.381 N 
ATOM     19  H   LIG d   1      -4.765  95.948 120.587  0.00  0.00    -0.090 HD
ATOM     20  H   LIG d   1      -3.771  94.713 120.228  0.00  0.00    -0.090 HD
ATOM     21  H   LIG d   1      -4.680  94.660 121.590  0.00  0.00    -0.090 HD
ENDBRANCH   5  18
BRANCH   3  22
ATOM     22  C   LIG d   1      -8.675  95.629 118.123  0.00  0.00     0.382 C 
ATOM     23  O   LIG d   1      -9.798  95.119 118.353  0.00  0.00    -0.241 OA
ATOM     24  O   LIG d   1      -8.608  96.792 117.682  0.00  0.00    -0.241 OA
ENDBRANCH   3  22
TORSDOF 7
ENDMDL
MODEL 8
REMARK VINA RESULT:      -4.9      2.413      5.171
REMARK  7 active torsions:
REMARK  status: ('A' for Active; 'I' for Inactive)
REMARK    1  A    between atoms: C_2  and  C_3 
REMARK    2  A    between atoms: C_3  and  O_6 
REMARK    3  A    between atoms: C_3  and  C_4 
REMARK    4  A    between atoms: C_7  and  O_6 
REMARK    5  A    between atoms: C_9  and  C_10 
REMARK    6  A    between atoms: N_15  and  C_14 
REMARK    7  A    between atoms: N_20  and  C_19 
REMARK       I    between atoms: C_22  and  N_20 
ROOT
ATOM      1  C   LIG d   1      -6.032  93.268 118.204  0.00  0.00     0.161 C 
ATOM      2  C   LIG d   1      -6.932  92.376 117.597  0.00  0.00     0.016 C 
ATOM      3  C   LIG d   1      -6.525  91.227 116.881  0.00  0.00     0.038 C 
ATOM      4  C   LIG d   1      -5.187  90.807 116.851  0.00  0.00     0.028 C 
ATOM      5  C   LIG d   1      -4.190  91.948 117.023  0.00  0.00    -0.047 C 
ATOM      6  C   LIG d   1      -4.575  92.766 118.277  0.00  0.00     0.091 C 
ENDROOT
BRANCH   1   7
ATOM      7  O   LIG d   1      -6.507  93.622 119.518  0.00  0.00    -0.368 OA
BRANCH   7   8
ATOM      8  C   LIG d   1      -7.109  94.934 119.646  0.00  0.00     0.119 C 
BRANCH   8   9
ATOM      9  C   LIG d   1      -6.704  95.496 121.022  0.00  0.00     0.028 C 
ATOM     10  C   LIG d   1      -5.402  94.872 121.552  0.00  0.00     0.006 C 
ENDBRANCH   8   9
BRANCH   8  11
ATOM     11  C   LIG d   1      -8.637  94.845 119.678  0.00  0.00     0.028 C 
ATOM     12  C   LIG d   1      -9.298  95.505 118.457  0.00  0.00     0.006 C 
ENDBRANCH   8  11
ENDBRANCH   7   8
ENDBRANCH   1   7
BRANCH   6  13
ATOM     13  N   LIG d   1      -3.700  93.952 118.470  0.00  0.00    -0.311 N 
ATOM     14  C   LIG d   1      -2.610  93.941 119.235  0.00  0.00     0.210 C 
ATOM     15  C   LIG d   1      -1.862  95.276 119.313  0.00  0.00     0.109 C 
ATOM     16  O   LIG d   1      -2.173  92.945 119.830  0.00  0.00    -0.276 OA
ATOM     17  H   LIG d   1      -3.964  94.795 117.999  0.00  0.00     0.149 HD
ENDBRANCH   6  13
BRANCH   5  18
ATOM     18  N   LIG d   1      -2.843  91.353 117.111  0.00  0.00     0.381 N 
ATOM     19  H   LIG d   1      -2.682  91.017 118.039  0.00  0.00    -0.090 HD
ATOM     20  H   LIG d   1      -2.161  92.063 116.910  0.00  0.00    -0.090 HD
ATOM     21  H   LIG d   1      -2.757  90.605 116.459  0.00  0.00    -0.090 HD
ENDBRANCH   5  18
BRANCH   3  22
ATOM     22  C   LIG d   1      -7.458  90.506 116.150  0.00  0.00     0.382 C 
ATOM     23  O   LIG d   1      -8.296  91.108 115.436  0.00  0.00    -0.241 OA
ATOM     24  O   LIG d   1      -7.501  89.264 116.231  0.00  0.00    -0.241 OA
ENDBRANCH   3  22
TORSDOF 7
ENDMDL
MODEL 9
REMARK VINA RESULT:      -4.9      2.217      5.216
REMARK  7 active torsions:
REMARK  status: ('A' for Active; 'I' for Inactive)
REMARK    1  A    between atoms: C_2  and  C_3 
REMARK    2  A    between atoms: C_3  and  O_6 
REMARK    3  A    between atoms: C_3  and  C_4 
REMARK    4  A    between atoms: C_7  and  O_6 
REMARK    5  A    between atoms: C_9  and  C_10 
REMARK    6  A    between atoms: N_15  and  C_14 
REMARK    7  A    between atoms: N_20  and  C_19 
REMARK       I    between atoms: C_22  and  N_20 
ROOT
ATOM      1  C   LIG d   1      -5.281  92.837 117.656  0.00  0.00     0.161 C 
ATOM      2  C   LIG d   1      -6.450  92.164 117.263  0.00  0.00     0.016 C 
ATOM      3  C   LIG d   1      -6.445  90.886 116.657  0.00  0.00     0.038 C 
ATOM      4  C   LIG d   1      -5.273  90.125 116.540  0.00  0.00     0.028 C 
ATOM      5  C   LIG d   1      -4.007  90.972 116.462  0.00  0.00    -0.047 C 
ATOM      6  C   LIG d   1      -4.001  91.976 117.638  0.00  0.00     0.091 C 
ENDROOT
BRANCH   1   7
ATOM      7  O   LIG d   1      -5.470  93.426 118.958  0.00  0.00    -0.368 OA
BRANCH   7   8
ATOM      8  C   LIG d   1      -6.197  92.623 119.920  0.00  0.00     0.119 C 
BRANCH   8   9
ATOM      9  C   LIG d   1      -7.117  93.571 120.713  0.00  0.00     0.028 C 
ATOM     10  C   LIG d   1      -7.700  94.692 119.836  0.00  0.00     0.006 C 
ENDBRANCH   8   9
BRANCH   8  11
ATOM     11  C   LIG d   1      -5.254  92.010 120.960  0.00  0.00     0.028 C 
ATOM     12  C   LIG d   1      -4.057  92.918 121.287  0.00  0.00     0.006 C 
ENDBRANCH   8  11
ENDBRANCH   7   8
ENDBRANCH   1   7
BRANCH   6  13
ATOM     13  N   LIG d   1      -2.838  92.899 117.589  0.00  0.00    -0.311 N 
ATOM     14  C   LIG d   1      -1.721  92.710 118.290  0.00  0.00     0.210 C 
ATOM     15  C   LIG d   1      -0.653  93.792 118.109  0.00  0.00     0.109 C 
ATOM     16  O   LIG d   1      -1.502  91.731 119.019  0.00  0.00    -0.276 OA
ATOM     17  H   LIG d   1      -2.918  93.703 116.997  0.00  0.00     0.149 HD
ENDBRANCH   6  13
BRANCH   5  18
ATOM     18  N   LIG d   1      -2.854  90.052 116.482  0.00  0.00     0.381 N 
ATOM     19  H   LIG d   1      -3.079  89.215 115.983  0.00  0.00    -0.090 HD
ATOM     20  H   LIG d   1      -2.651  89.805 117.435  0.00  0.00    -0.090 HD
ATOM     21  H   LIG d   1      -2.060  90.490 116.070  0.00  0.00    -0.090 HD
ENDBRANCH   5  18
BRANCH   3  22
ATOM     22  C   LIG d   1      -7.619  90.375 116.125  0.00  0.00     0.382 C 
ATOM     23  O   LIG d   1      -7.913  89.168 116.301  0.00  0.00    -0.241 OA
ATOM     24  O   LIG d   1      -8.365  91.093 115.433  0.00  0.00    -0.241 OA
ENDBRANCH   3  22
TORSDOF 7
ENDMDL
