MODEL 1
REMARK VINA RESULT:      -4.9      0.000      0.000
REMARK  7 active torsions:
REMARK  status: ('A' for Active; 'I' for Inactive)
REMARK    1  A    between atoms: C_2  and  C_3 
REMARK    2  A    between atoms: C_3  and  O_6 
REMARK    3  A    between atoms: C_3  and  C_4 
REMARK    4  A    between atoms: C_7  and  O_6 
REMARK    5  A    between atoms: C_9  and  C_10 
REMARK    6  A    between atoms: N_15  and  C_14 
REMARK    7  A    between atoms: N_20  and  C_19 
REMARK       I    between atoms: C_22  and  N_20 
ROOT
ATOM      1  C   LIG d   1      -3.613  91.197 118.357  0.00  0.00     0.161 C 
ATOM      2  C   LIG d   1      -4.081  90.292 117.388  0.00  0.00     0.016 C 
ATOM      3  C   LIG d   1      -5.308  90.451 116.704  0.00  0.00     0.038 C 
ATOM      4  C   LIG d   1      -6.084  91.612 116.833  0.00  0.00     0.028 C 
ATOM      5  C   LIG d   1      -5.903  92.316 118.174  0.00  0.00    -0.047 C 
ATOM      6  C   LIG d   1      -4.393  92.526 118.430  0.00  0.00     0.091 C 
ENDROOT
BRANCH   1   7
ATOM      7  O   LIG d   1      -2.210  91.450 118.151  0.00  0.00    -0.368 OA
BRANCH   7   8
ATOM      8  C   LIG d   1      -1.312  90.915 119.154  0.00  0.00     0.119 C 
BRANCH   8   9
ATOM      9  C   LIG d   1      -0.567  89.724 118.520  0.00  0.00     0.028 C 
ATOM     10  C   LIG d   1      -1.200  88.372 118.890  0.00  0.00     0.006 C 
ENDBRANCH   8   9
BRANCH   8  11
ATOM     11  C   LIG d   1      -2.085  90.326 120.337  0.00  0.00     0.028 C 
ATOM     12  C   LIG d   1      -1.759  91.023 121.668  0.00  0.00     0.006 C 
ENDBRANCH   8  11
ENDBRANCH   7   8
ENDBRANCH   1   7
BRANCH   6  13
ATOM     13  N   LIG d   1      -4.123  93.133 119.759  0.00  0.00    -0.311 N 
ATOM     14  C   LIG d   1      -3.269  94.138 119.947  0.00  0.00     0.210 C 
ATOM     15  C   LIG d   1      -3.124  94.601 121.400  0.00  0.00     0.109 C 
ATOM     16  O   LIG d   1      -2.642  94.711 119.043  0.00  0.00    -0.276 OA
ATOM     17  H   LIG d   1      -4.613  92.750 120.544  0.00  0.00     0.149 HD
ENDBRANCH   6  13
BRANCH   5  18
ATOM     18  N   LIG d   1      -6.662  93.580 118.120  0.00  0.00     0.381 N 
ATOM     19  H   LIG d   1      -6.109  94.289 117.680  0.00  0.00    -0.090 HD
ATOM     20  H   LIG d   1      -6.867  93.876 119.057  0.00  0.00    -0.090 HD
ATOM     21  H   LIG d   1      -7.509  93.448 117.612  0.00  0.00    -0.090 HD
ENDBRANCH   5  18
BRANCH   3  22
ATOM     22  C   LIG d   1      -5.789  89.422 115.909  0.00  0.00     0.382 C 
ATOM     23  O   LIG d   1      -7.011  89.367 115.626  0.00  0.00    -0.241 OA
ATOM     24  O   LIG d   1      -5.025  88.524 115.507  0.00  0.00    -0.241 OA
ENDBRANCH   3  22
TORSDOF 7
ENDMDL
MODEL 2
REMARK VINA RESULT:      -4.8      2.339      4.328
REMARK  7 active torsions:
REMARK  status: ('A' for Active; 'I' for Inactive)
REMARK    1  A    between atoms: C_2  and  C_3 
REMARK    2  A    between atoms: C_3  and  O_6 
REMARK    3  A    between atoms: C_3  and  C_4 
REMARK    4  A    between atoms: C_7  and  O_6 
REMARK    5  A    between atoms: C_9  and  C_10 
REMARK    6  A    between atoms: N_15  and  C_14 
REMARK    7  A    between atoms: N_20  and  C_19 
REMARK       I    between atoms: C_22  and  N_20 
ROOT
ATOM      1  C   LIG d   1      -4.946  92.407 118.228  0.00  0.00     0.161 C 
ATOM      2  C   LIG d   1      -6.034  91.752 117.629  0.00  0.00     0.016 C 
ATOM      3  C   LIG d   1      -5.906  90.569 116.865  0.00  0.00     0.038 C 
ATOM      4  C   LIG d   1      -4.692  89.873 116.775  0.00  0.00     0.028 C 
ATOM      5  C   LIG d   1      -3.467  90.766 116.943  0.00  0.00    -0.047 C 
ATOM      6  C   LIG d   1      -3.630  91.602 118.234  0.00  0.00     0.091 C 
ENDROOT
BRANCH   1   7
ATOM      7  O   LIG d   1      -5.294  92.807 119.569  0.00  0.00    -0.368 OA
BRANCH   7   8
ATOM      8  C   LIG d   1      -6.629  93.341 119.748  0.00  0.00     0.119 C 
BRANCH   8   9
ATOM      9  C   LIG d   1      -6.519  94.878 119.724  0.00  0.00     0.028 C 
ATOM     10  C   LIG d   1      -7.531  95.524 118.762  0.00  0.00     0.006 C 
ENDBRANCH   8   9
BRANCH   8  11
ATOM     11  C   LIG d   1      -7.186  92.996 121.132  0.00  0.00     0.028 C 
ATOM     12  C   LIG d   1      -6.459  91.812 121.789  0.00  0.00     0.006 C 
ENDBRANCH   8  11
ENDBRANCH   7   8
ENDBRANCH   1   7
BRANCH   6  13
ATOM     13  N   LIG d   1      -2.514  92.564 118.430  0.00  0.00    -0.311 N 
ATOM     14  C   LIG d   1      -1.427  92.290 119.149  0.00  0.00     0.210 C 
ATOM     15  C   LIG d   1      -0.408  93.429 119.240  0.00  0.00     0.109 C 
ATOM     16  O   LIG d   1      -1.196  91.199 119.693  0.00  0.00    -0.276 OA
ATOM     17  H   LIG d   1      -2.606  93.462 117.997  0.00  0.00     0.149 HD
ENDBRANCH   6  13
BRANCH   5  18
ATOM     18  N   LIG d   1      -2.279  89.893 116.965  0.00  0.00     0.381 N 
ATOM     19  H   LIG d   1      -2.300  89.271 116.182  0.00  0.00    -0.090 HD
ATOM     20  H   LIG d   1      -2.295  89.343 117.806  0.00  0.00    -0.090 HD
ATOM     21  H   LIG d   1      -1.450  90.445 116.937  0.00  0.00    -0.090 HD
ENDBRANCH   5  18
BRANCH   3  22
ATOM     22  C   LIG d   1      -6.993  90.093 116.148  0.00  0.00     0.382 C 
ATOM     23  O   LIG d   1      -7.282  88.872 116.185  0.00  0.00    -0.241 OA
ATOM     24  O   LIG d   1      -7.662  90.860 115.430  0.00  0.00    -0.241 OA
ENDBRANCH   3  22
TORSDOF 7
ENDMDL
MODEL 3
REMARK VINA RESULT:      -4.8      1.125      1.838
REMARK  7 active torsions:
REMARK  status: ('A' for Active; 'I' for Inactive)
REMARK    1  A    between atoms: C_2  and  C_3 
REMARK    2  A    between atoms: C_3  and  O_6 
REMARK    3  A    between atoms: C_3  and  C_4 
REMARK    4  A    between atoms: C_7  and  O_6 
REMARK    5  A    between atoms: C_9  and  C_10 
REMARK    6  A    between atoms: N_15  and  C_14 
REMARK    7  A    between atoms: N_20  and  C_19 
REMARK       I    between atoms: C_22  and  N_20 
ROOT
ATOM      1  C   LIG d   1      -3.582  91.203 118.230  0.00  0.00     0.161 C 
ATOM      2  C   LIG d   1      -4.341  90.432 117.334  0.00  0.00     0.016 C 
ATOM      3  C   LIG d   1      -5.640  90.790 116.906  0.00  0.00     0.038 C 
ATOM      4  C   LIG d   1      -6.212  92.030 117.229  0.00  0.00     0.028 C 
ATOM      5  C   LIG d   1      -5.690  92.615 118.537  0.00  0.00    -0.047 C 
ATOM      6  C   LIG d   1      -4.144  92.613 118.506  0.00  0.00     0.091 C 
ENDROOT
BRANCH   1   7
ATOM      7  O   LIG d   1      -2.220  91.288 117.767  0.00  0.00    -0.368 OA
BRANCH   7   8
ATOM      8  C   LIG d   1      -1.284  90.360 118.368  0.00  0.00     0.119 C 
BRANCH   8   9
ATOM      9  C   LIG d   1      -0.075  91.177 118.864  0.00  0.00     0.028 C 
ATOM     10  C   LIG d   1       0.151  92.453 118.035  0.00  0.00     0.006 C 
ENDBRANCH   8   9
BRANCH   8  11
ATOM     11  C   LIG d   1      -0.717  89.389 117.328  0.00  0.00     0.028 C 
ATOM     12  C   LIG d   1      -1.252  87.957 117.495  0.00  0.00     0.006 C 
ENDBRANCH   8  11
ENDBRANCH   7   8
ENDBRANCH   1   7
BRANCH   6  13
ATOM     13  N   LIG d   1      -3.551  93.092 119.782  0.00  0.00    -0.311 N 
ATOM     14  C   LIG d   1      -2.712  94.123 119.859  0.00  0.00     0.210 C 
ATOM     15  C   LIG d   1      -2.201  94.438 121.268  0.00  0.00     0.109 C 
ATOM     16  O   LIG d   1      -2.367  94.828 118.898  0.00  0.00    -0.276 OA
ATOM     17  H   LIG d   1      -3.802  92.597 120.615  0.00  0.00     0.149 HD
ENDBRANCH   6  13
BRANCH   5  18
ATOM     18  N   LIG d   1      -6.263  93.966 118.682  0.00  0.00     0.381 N 
ATOM     19  H   LIG d   1      -5.584  94.582 119.083  0.00  0.00    -0.090 HD
ATOM     20  H   LIG d   1      -7.052  93.920 119.302  0.00  0.00    -0.090 HD
ATOM     21  H   LIG d   1      -6.551  94.311 117.792  0.00  0.00    -0.090 HD
ENDBRANCH   5  18
BRANCH   3  22
ATOM     22  C   LIG d   1      -6.398  89.886 116.177  0.00  0.00     0.382 C 
ATOM     23  O   LIG d   1      -7.635  90.057 116.059  0.00  0.00    -0.241 OA
ATOM     24  O   LIG d   1      -5.867  88.878 115.675  0.00  0.00    -0.241 OA
ENDBRANCH   3  22
TORSDOF 7
ENDMDL
MODEL 4
REMARK VINA RESULT:      -4.6      2.109      3.215
REMARK  7 active torsions:
REMARK  status: ('A' for Active; 'I' for Inactive)
REMARK    1  A    between atoms: C_2  and  C_3 
REMARK    2  A    between atoms: C_3  and  O_6 
REMARK    3  A    between atoms: C_3  and  C_4 
REMARK    4  A    between atoms: C_7  and  O_6 
REMARK    5  A    between atoms: C_9  and  C_10 
REMARK    6  A    between atoms: N_15  and  C_14 
REMARK    7  A    between atoms: N_20  and  C_19 
REMARK       I    between atoms: C_22  and  N_20 
ROOT
ATOM      1  C   LIG d   1      -2.021  90.081 117.680  0.00  0.00     0.161 C 
ATOM      2  C   LIG d   1      -3.201  89.665 117.040  0.00  0.00     0.016 C 
ATOM      3  C   LIG d   1      -4.351  90.479 116.923  0.00  0.00     0.038 C 
ATOM      4  C   LIG d   1      -4.347  91.828 117.309  0.00  0.00     0.028 C 
ATOM      5  C   LIG d   1      -3.346  92.139 118.416  0.00  0.00    -0.047 C 
ATOM      6  C   LIG d   1      -1.960  91.588 118.008  0.00  0.00     0.091 C 
ENDROOT
BRANCH   1   7
ATOM      7  O   LIG d   1      -0.877  89.692 116.895  0.00  0.00    -0.368 OA
BRANCH   7   8
ATOM      8  C   LIG d   1      -0.042  88.651 117.458  0.00  0.00     0.119 C 
BRANCH   8   9
ATOM      9  C   LIG d   1       1.399  88.898 116.970  0.00  0.00     0.028 C 
ATOM     10  C   LIG d   1       1.801  90.380 117.056  0.00  0.00     0.006 C 
ENDBRANCH   8   9
BRANCH   8  11
ATOM     11  C   LIG d   1      -0.425  87.273 116.910  0.00  0.00     0.028 C 
ATOM     12  C   LIG d   1       0.388  86.133 117.543  0.00  0.00     0.006 C 
ENDBRANCH   8  11
ENDBRANCH   7   8
ENDBRANCH   1   7
BRANCH   6  13
ATOM     13  N   LIG d   1      -0.940  91.775 119.072  0.00  0.00    -0.311 N 
ATOM     14  C   LIG d   1      -0.132  92.832 119.135  0.00  0.00     0.210 C 
ATOM     15  C   LIG d   1       0.860  92.819 120.302  0.00  0.00     0.109 C 
ATOM     16  O   LIG d   1      -0.164  93.794 118.354  0.00  0.00    -0.276 OA
ATOM     17  H   LIG d   1      -0.867  91.057 119.766  0.00  0.00     0.149 HD
ENDBRANCH   6  13
BRANCH   5  18
ATOM     18  N   LIG d   1      -3.349  93.599 118.622  0.00  0.00     0.381 N 
ATOM     19  H   LIG d   1      -2.409  93.931 118.711  0.00  0.00    -0.090 HD
ATOM     20  H   LIG d   1      -3.838  93.806 119.475  0.00  0.00    -0.090 HD
ATOM     21  H   LIG d   1      -3.798  94.051 117.856  0.00  0.00    -0.090 HD
ENDBRANCH   5  18
BRANCH   3  22
ATOM     22  C   LIG d   1      -5.535  89.932 116.452  0.00  0.00     0.382 C 
ATOM     23  O   LIG d   1      -5.524  88.819 115.873  0.00  0.00    -0.241 OA
ATOM     24  O   LIG d   1      -6.607  90.557 116.560  0.00  0.00    -0.241 OA
ENDBRANCH   3  22
TORSDOF 7
ENDMDL
MODEL 5
REMARK VINA RESULT:      -4.5      2.206      4.175
REMARK  7 active torsions:
REMARK  status: ('A' for Active; 'I' for Inactive)
REMARK    1  A    between atoms: C_2  and  C_3 
REMARK    2  A    between atoms: C_3  and  O_6 
REMARK    3  A    between atoms: C_3  and  C_4 
REMARK    4  A    between atoms: C_7  and  O_6 
REMARK    5  A    between atoms: C_9  and  C_10 
REMARK    6  A    between atoms: N_15  and  C_14 
REMARK    7  A    between atoms: N_20  and  C_19 
REMARK       I    between atoms: C_22  and  N_20 
ROOT
ATOM      1  C   LIG d   1      -4.929  92.388 118.327  0.00  0.00     0.161 C 
ATOM      2  C   LIG d   1      -6.040  91.798 117.700  0.00  0.00     0.016 C 
ATOM      3  C   LIG d   1      -5.952  90.649 116.882  0.00  0.00     0.038 C 
ATOM      4  C   LIG d   1      -4.761  89.918 116.755  0.00  0.00     0.028 C 
ATOM      5  C   LIG d   1      -3.508  90.762 116.961  0.00  0.00    -0.047 C 
ATOM      6  C   LIG d   1      -3.640  91.540 118.290  0.00  0.00     0.091 C 
ENDROOT
BRANCH   1   7
ATOM      7  O   LIG d   1      -5.262  92.735 119.685  0.00  0.00    -0.368 OA
BRANCH   7   8
ATOM      8  C   LIG d   1      -5.329  94.152 119.983  0.00  0.00     0.119 C 
BRANCH   8   9
ATOM      9  C   LIG d   1      -4.745  94.357 121.394  0.00  0.00     0.028 C 
ATOM     10  C   LIG d   1      -5.272  93.322 122.403  0.00  0.00     0.006 C 
ENDBRANCH   8   9
BRANCH   8  11
ATOM     11  C   LIG d   1      -6.780  94.635 120.070  0.00  0.00     0.028 C 
ATOM     12  C   LIG d   1      -7.250  95.343 118.790  0.00  0.00     0.006 C 
ENDBRANCH   8  11
ENDBRANCH   7   8
ENDBRANCH   1   7
BRANCH   6  13
ATOM     13  N   LIG d   1      -2.494  92.455 118.527  0.00  0.00    -0.311 N 
ATOM     14  C   LIG d   1      -1.715  92.390 119.606  0.00  0.00     0.210 C 
ATOM     15  C   LIG d   1      -0.601  93.440 119.664  0.00  0.00     0.109 C 
ATOM     16  O   LIG d   1      -1.821  91.542 120.505  0.00  0.00    -0.276 OA
ATOM     17  H   LIG d   1      -2.316  93.155 117.833  0.00  0.00     0.149 HD
ENDBRANCH   6  13
BRANCH   5  18
ATOM     18  N   LIG d   1      -2.348  89.850 116.938  0.00  0.00     0.381 N 
ATOM     19  H   LIG d   1      -1.675  90.142 117.618  0.00  0.00    -0.090 HD
ATOM     20  H   LIG d   1      -1.919  89.893 116.031  0.00  0.00    -0.090 HD
ATOM     21  H   LIG d   1      -2.643  88.918 117.130  0.00  0.00    -0.090 HD
ENDBRANCH   5  18
BRANCH   3  22
ATOM     22  C   LIG d   1      -7.056  90.243 116.147  0.00  0.00     0.382 C 
ATOM     23  O   LIG d   1      -7.414  89.040 116.166  0.00  0.00    -0.241 OA
ATOM     24  O   LIG d   1      -7.671  91.055 115.430  0.00  0.00    -0.241 OA
ENDBRANCH   3  22
TORSDOF 7
ENDMDL
MODEL 6
REMARK VINA RESULT:      -4.5      2.714      4.205
REMARK  7 active torsions:
REMARK  status: ('A' for Active; 'I' for Inactive)
REMARK    1  A    between atoms: C_2  and  C_3 
REMARK    2  A    between atoms: C_3  and  O_6 
REMARK    3  A    between atoms: C_3  and  C_4 
REMARK    4  A    between atoms: C_7  and  O_6 
REMARK    5  A    between atoms: C_9  and  C_10 
REMARK    6  A    between atoms: N_15  and  C_14 
REMARK    7  A    between atoms: N_20  and  C_19 
REMARK       I    between atoms: C_22  and  N_20 
ROOT
ATOM      1  C   LIG d   1      -2.948  91.315 118.318  0.00  0.00     0.161 C 
ATOM      2  C   LIG d   1      -4.144  92.030 118.495  0.00  0.00     0.016 C 
ATOM      3  C   LIG d   1      -5.342  91.723 117.810  0.00  0.00     0.038 C 
ATOM      4  C   LIG d   1      -5.466  90.579 117.007  0.00  0.00     0.028 C 
ATOM      5  C   LIG d   1      -4.144  90.117 116.403  0.00  0.00    -0.047 C 
ATOM      6  C   LIG d   1      -3.093  89.996 117.530  0.00  0.00     0.091 C 
ENDROOT
BRANCH   1   7
ATOM      7  O   LIG d   1      -2.331  91.070 119.597  0.00  0.00    -0.368 OA
BRANCH   7   8
ATOM      8  C   LIG d   1      -1.406  92.083 120.063  0.00  0.00     0.119 C 
BRANCH   8   9
ATOM      9  C   LIG d   1      -0.114  91.948 119.234  0.00  0.00     0.028 C 
ATOM     10  C   LIG d   1       0.364  93.296 118.669  0.00  0.00     0.006 C 
ENDBRANCH   8   9
BRANCH   8  11
ATOM     11  C   LIG d   1      -0.986  91.829 121.514  0.00  0.00     0.028 C 
ATOM     12  C   LIG d   1      -1.141  90.358 121.930  0.00  0.00     0.006 C 
ENDBRANCH   8  11
ENDBRANCH   7   8
ENDBRANCH   1   7
BRANCH   6  13
ATOM     13  N   LIG d   1      -1.748  89.630 117.014  0.00  0.00    -0.311 N 
ATOM     14  C   LIG d   1      -0.993  88.673 117.550  0.00  0.00     0.210 C 
ATOM     15  C   LIG d   1       0.368  88.470 116.876  0.00  0.00     0.109 C 
ATOM     16  O   LIG d   1      -1.334  87.950 118.498  0.00  0.00    -0.276 OA
ATOM     17  H   LIG d   1      -1.406  90.145 116.226  0.00  0.00     0.149 HD
ENDBRANCH   6  13
BRANCH   5  18
ATOM     18  N   LIG d   1      -4.394  88.842 115.706  0.00  0.00     0.381 N 
ATOM     19  H   LIG d   1      -5.222  88.917 115.149  0.00  0.00    -0.090 HD
ATOM     20  H   LIG d   1      -4.539  88.120 116.390  0.00  0.00    -0.090 HD
ATOM     21  H   LIG d   1      -3.616  88.611 115.129  0.00  0.00    -0.090 HD
ENDBRANCH   5  18
BRANCH   3  22
ATOM     22  C   LIG d   1      -6.422  92.590 117.893  0.00  0.00     0.382 C 
ATOM     23  O   LIG d   1      -6.797  93.019 119.010  0.00  0.00    -0.241 OA
ATOM     24  O   LIG d   1      -7.054  92.912 116.869  0.00  0.00    -0.241 OA
ENDBRANCH   3  22
TORSDOF 7
ENDMDL
MODEL 7
REMARK VINA RESULT:      -4.5      3.211      5.981
REMARK  7 active torsions:
REMARK  status: ('A' for Active; 'I' for Inactive)
REMARK    1  A    between atoms: C_2  and  C_3 
REMARK    2  A    between atoms: C_3  and  O_6 
REMARK    3  A    between atoms: C_3  and  C_4 
REMARK    4  A    between atoms: C_7  and  O_6 
REMARK    5  A    between atoms: C_9  and  C_10 
REMARK    6  A    between atoms: N_15  and  C_14 
REMARK    7  A    between atoms: N_20  and  C_19 
REMARK       I    between atoms: C_22  and  N_20 
ROOT
ATOM      1  C   LIG d   1       0.192  90.744 117.137  0.00  0.00     0.161 C 
ATOM      2  C   LIG d   1       1.577  90.912 117.298  0.00  0.00     0.016 C 
ATOM      3  C   LIG d   1       2.153  91.988 118.012  0.00  0.00     0.038 C 
ATOM      4  C   LIG d   1       1.372  92.891 118.748  0.00  0.00     0.028 C 
ATOM      5  C   LIG d   1      -0.041  93.056 118.201  0.00  0.00    -0.047 C 
ATOM      6  C   LIG d   1      -0.678  91.658 118.026  0.00  0.00     0.091 C 
ENDROOT
BRANCH   1   7
ATOM      7  O   LIG d   1      -0.160  89.362 117.345  0.00  0.00    -0.368 OA
BRANCH   7   8
ATOM      8  C   LIG d   1      -0.377  88.958 118.719  0.00  0.00     0.119 C 
BRANCH   8   9
ATOM      9  C   LIG d   1       0.697  87.909 119.069  0.00  0.00     0.028 C 
ATOM     10  C   LIG d   1       0.963  86.934 117.910  0.00  0.00     0.006 C 
ENDBRANCH   8   9
BRANCH   8  11
ATOM     11  C   LIG d   1      -1.717  88.237 118.883  0.00  0.00     0.028 C 
ATOM     12  C   LIG d   1      -2.482  88.092 117.558  0.00  0.00     0.006 C 
ENDBRANCH   8  11
ENDBRANCH   7   8
ENDBRANCH   1   7
BRANCH   6  13
ATOM     13  N   LIG d   1      -2.031  91.723 117.416  0.00  0.00    -0.311 N 
ATOM     14  C   LIG d   1      -3.158  91.683 118.125  0.00  0.00     0.210 C 
ATOM     15  C   LIG d   1      -4.445  91.744 117.297  0.00  0.00     0.109 C 
ATOM     16  O   LIG d   1      -3.213  91.636 119.363  0.00  0.00    -0.276 OA
ATOM     17  H   LIG d   1      -2.079  91.794 116.418  0.00  0.00     0.149 HD
ENDBRANCH   6  13
BRANCH   5  18
ATOM     18  N   LIG d   1      -0.786  93.917 119.140  0.00  0.00     0.381 N 
ATOM     19  H   LIG d   1      -1.769  93.819 118.982  0.00  0.00    -0.090 HD
ATOM     20  H   LIG d   1      -0.533  94.875 118.972  0.00  0.00    -0.090 HD
ATOM     21  H   LIG d   1      -0.566  93.667 120.079  0.00  0.00    -0.090 HD
ENDBRANCH   5  18
BRANCH   3  22
ATOM     22  C   LIG d   1       3.524  92.190 117.963  0.00  0.00     0.382 C 
ATOM     23  O   LIG d   1       4.119  92.186 116.858  0.00  0.00    -0.241 OA
ATOM     24  O   LIG d   1       4.180  92.333 119.012  0.00  0.00    -0.241 OA
ENDBRANCH   3  22
TORSDOF 7
ENDMDL
MODEL 8
REMARK VINA RESULT:      -4.4      1.755      2.422
REMARK  7 active torsions:
REMARK  status: ('A' for Active; 'I' for Inactive)
REMARK    1  A    between atoms: C_2  and  C_3 
REMARK    2  A    between atoms: C_3  and  O_6 
REMARK    3  A    between atoms: C_3  and  C_4 
REMARK    4  A    between atoms: C_7  and  O_6 
REMARK    5  A    between atoms: C_9  and  C_10 
REMARK    6  A    between atoms: N_15  and  C_14 
REMARK    7  A    between atoms: N_20  and  C_19 
REMARK       I    between atoms: C_22  and  N_20 
ROOT
ATOM      1  C   LIG d   1      -3.829  91.749 119.244  0.00  0.00     0.161 C 
ATOM      2  C   LIG d   1      -3.822  90.758 118.249  0.00  0.00     0.016 C 
ATOM      3  C   LIG d   1      -4.771  90.700 117.202  0.00  0.00     0.038 C 
ATOM      4  C   LIG d   1      -5.707  91.723 116.992  0.00  0.00     0.028 C 
ATOM      5  C   LIG d   1      -6.074  92.480 118.265  0.00  0.00    -0.047 C 
ATOM      6  C   LIG d   1      -4.775  92.937 118.968  0.00  0.00     0.091 C 
ENDROOT
BRANCH   1   7
ATOM      7  O   LIG d   1      -2.487  92.221 119.474  0.00  0.00    -0.368 OA
BRANCH   7   8
ATOM      8  C   LIG d   1      -2.050  93.327 118.646  0.00  0.00     0.119 C 
BRANCH   8   9
ATOM      9  C   LIG d   1      -0.850  92.836 117.813  0.00  0.00     0.028 C 
ATOM     10  C   LIG d   1      -0.109  91.667 118.484  0.00  0.00     0.006 C 
ENDBRANCH   8   9
BRANCH   8  11
ATOM     11  C   LIG d   1      -1.509  94.480 119.497  0.00  0.00     0.028 C 
ATOM     12  C   LIG d   1      -1.738  95.855 118.852  0.00  0.00     0.006 C 
ENDBRANCH   8  11
ENDBRANCH   7   8
ENDBRANCH   1   7
BRANCH   6  13
ATOM     13  N   LIG d   1      -5.041  93.611 120.266  0.00  0.00    -0.311 N 
ATOM     14  C   LIG d   1      -5.179  94.930 120.391  0.00  0.00     0.210 C 
ATOM     15  C   LIG d   1      -5.428  95.421 121.821  0.00  0.00     0.109 C 
ATOM     16  O   LIG d   1      -5.151  95.737 119.450  0.00  0.00    -0.276 OA
ATOM     17  H   LIG d   1      -5.110  93.029 121.077  0.00  0.00     0.149 HD
ENDBRANCH   6  13
BRANCH   5  18
ATOM     18  N   LIG d   1      -6.949  93.603 117.880  0.00  0.00     0.381 N 
ATOM     19  H   LIG d   1      -7.176  94.148 118.688  0.00  0.00    -0.090 HD
ATOM     20  H   LIG d   1      -7.802  93.234 117.498  0.00  0.00    -0.090 HD
ATOM     21  H   LIG d   1      -6.493  94.174 117.203  0.00  0.00    -0.090 HD
ENDBRANCH   5  18
BRANCH   3  22
ATOM     22  C   LIG d   1      -4.815  89.588 116.375  0.00  0.00     0.382 C 
ATOM     23  O   LIG d   1      -4.004  88.646 116.548  0.00  0.00    -0.241 OA
ATOM     24  O   LIG d   1      -5.625  89.534 115.431  0.00  0.00    -0.241 OA
ENDBRANCH   3  22
TORSDOF 7
ENDMDL
MODEL 9
REMARK VINA RESULT:      -4.4      1.788      4.480
REMARK  7 active torsions:
REMARK  status: ('A' for Active; 'I' for Inactive)
REMARK    1  A    between atoms: C_2  and  C_3 
REMARK    2  A    between atoms: C_3  and  O_6 
REMARK    3  A    between atoms: C_3  and  C_4 
REMARK    4  A    between atoms: C_7  and  O_6 
REMARK    5  A    between atoms: C_9  and  C_10 
REMARK    6  A    between atoms: N_15  and  C_14 
REMARK    7  A    between atoms: N_20  and  C_19 
REMARK       I    between atoms: C_22  and  N_20 
ROOT
ATOM      1  C   LIG d   1      -3.839  91.654 117.416  0.00  0.00     0.161 C 
ATOM      2  C   LIG d   1      -3.041  92.663 117.980  0.00  0.00     0.016 C 
ATOM      3  C   LIG d   1      -3.503  93.554 118.976  0.00  0.00     0.038 C 
ATOM      4  C   LIG d   1      -4.756  93.398 119.587  0.00  0.00     0.028 C 
ATOM      5  C   LIG d   1      -5.783  92.707 118.697  0.00  0.00    -0.047 C 
ATOM      6  C   LIG d   1      -5.172  91.396 118.150  0.00  0.00     0.091 C 
ENDROOT
BRANCH   1   7
ATOM      7  O   LIG d   1      -3.080  90.432 117.313  0.00  0.00    -0.368 OA
BRANCH   7   8
ATOM      8  C   LIG d   1      -1.848  90.381 118.074  0.00  0.00     0.119 C 
BRANCH   8   9
ATOM      9  C   LIG d   1      -0.778  89.726 117.179  0.00  0.00     0.028 C 
ATOM     10  C   LIG d   1      -0.746  88.196 117.328  0.00  0.00     0.006 C 
ENDBRANCH   8   9
BRANCH   8  11
ATOM     11  C   LIG d   1      -1.981  89.458 119.289  0.00  0.00     0.028 C 
ATOM     12  C   LIG d   1      -2.029  90.227 120.619  0.00  0.00     0.006 C 
ENDBRANCH   8  11
ENDBRANCH   7   8
ENDBRANCH   1   7
BRANCH   6  13
ATOM     13  N   LIG d   1      -6.080  90.700 117.201  0.00  0.00    -0.311 N 
ATOM     14  C   LIG d   1      -6.873  91.338 116.343  0.00  0.00     0.210 C 
ATOM     15  C   LIG d   1      -7.744  90.430 115.469  0.00  0.00     0.109 C 
ATOM     16  O   LIG d   1      -6.915  92.570 116.200  0.00  0.00    -0.276 OA
ATOM     17  H   LIG d   1      -6.086  89.699 117.228  0.00  0.00     0.149 HD
ENDBRANCH   6  13
BRANCH   5  18
ATOM     18  N   LIG d   1      -6.997  92.485 119.505  0.00  0.00     0.381 N 
ATOM     19  H   LIG d   1      -7.372  91.578 119.311  0.00  0.00    -0.090 HD
ATOM     20  H   LIG d   1      -7.686  93.171 119.252  0.00  0.00    -0.090 HD
ATOM     21  H   LIG d   1      -6.780  92.563 120.474  0.00  0.00    -0.090 HD
ENDBRANCH   5  18
BRANCH   3  22
ATOM     22  C   LIG d   1      -2.723  94.641 119.341  0.00  0.00     0.382 C 
ATOM     23  O   LIG d   1      -1.834  95.064 118.564  0.00  0.00    -0.241 OA
ATOM     24  O   LIG d   1      -2.867  95.175 120.457  0.00  0.00    -0.241 OA
ENDBRANCH   3  22
TORSDOF 7
ENDMDL
