MODEL 1
REMARK VINA RESULT:      -5.4      0.000      0.000
REMARK  7 active torsions:
REMARK  status: ('A' for Active; 'I' for Inactive)
REMARK    1  A    between atoms: C_2  and  C_3 
REMARK    2  A    between atoms: C_3  and  O_6 
REMARK    3  A    between atoms: C_3  and  C_4 
REMARK    4  A    between atoms: C_7  and  O_6 
REMARK    5  A    between atoms: C_9  and  C_10 
REMARK    6  A    between atoms: N_15  and  C_14 
REMARK    7  A    between atoms: N_20  and  C_19 
REMARK       I    between atoms: C_22  and  N_20 
ROOT
ATOM      1  C   LIG d   1      -4.693  92.322 118.558  0.00  0.00     0.161 C 
ATOM      2  C   LIG d   1      -5.896  93.046 118.572  0.00  0.00     0.016 C 
ATOM      3  C   LIG d   1      -6.943  92.833 117.646  0.00  0.00     0.038 C 
ATOM      4  C   LIG d   1      -6.920  91.770 116.732  0.00  0.00     0.028 C 
ATOM      5  C   LIG d   1      -5.511  91.332 116.349  0.00  0.00    -0.047 C 
ATOM      6  C   LIG d   1      -4.695  91.083 117.638  0.00  0.00     0.091 C 
ENDROOT
BRANCH   1   7
ATOM      7  O   LIG d   1      -4.332  91.946 119.902  0.00  0.00    -0.368 OA
BRANCH   7   8
ATOM      8  C   LIG d   1      -3.212  92.657 120.484  0.00  0.00     0.119 C 
BRANCH   8   9
ATOM      9  C   LIG d   1      -2.556  93.485 119.361  0.00  0.00     0.028 C 
ATOM     10  C   LIG d   1      -1.083  93.105 119.137  0.00  0.00     0.006 C 
ENDBRANCH   8   9
BRANCH   8  11
ATOM     11  C   LIG d   1      -2.125  91.689 120.962  0.00  0.00     0.028 C 
ATOM     12  C   LIG d   1      -2.701  90.401 121.571  0.00  0.00     0.006 C 
ENDBRANCH   8  11
ENDBRANCH   7   8
ENDBRANCH   1   7
BRANCH   6  13
ATOM     13  N   LIG d   1      -3.279  90.731 117.353  0.00  0.00    -0.311 N 
ATOM     14  C   LIG d   1      -2.681  89.645 117.840  0.00  0.00     0.210 C 
ATOM     15  C   LIG d   1      -1.211  89.482 117.440  0.00  0.00     0.109 C 
ATOM     16  O   LIG d   1      -3.237  88.785 118.539  0.00  0.00    -0.276 OA
ATOM     17  H   LIG d   1      -2.762  91.359 116.769  0.00  0.00     0.149 HD
ENDBRANCH   6  13
BRANCH   5  18
ATOM     18  N   LIG d   1      -5.632  90.131 115.501  0.00  0.00     0.381 N 
ATOM     19  H   LIG d   1      -6.599  89.923 115.345  0.00  0.00    -0.090 HD
ATOM     20  H   LIG d   1      -5.215  89.352 115.978  0.00  0.00    -0.090 HD
ATOM     21  H   LIG d   1      -5.173  90.281 114.629  0.00  0.00    -0.090 HD
ENDBRANCH   5  18
BRANCH   3  22
ATOM     22  C   LIG d   1      -8.013  93.715 117.604  0.00  0.00     0.382 C 
ATOM     23  O   LIG d   1      -8.243  94.469 118.580  0.00  0.00    -0.241 OA
ATOM     24  O   LIG d   1      -8.777  93.735 116.621  0.00  0.00    -0.241 OA
ENDBRANCH   3  22
TORSDOF 7
ENDMDL
MODEL 2
REMARK VINA RESULT:      -5.2      2.333      4.006
REMARK  7 active torsions:
REMARK  status: ('A' for Active; 'I' for Inactive)
REMARK    1  A    between atoms: C_2  and  C_3 
REMARK    2  A    between atoms: C_3  and  O_6 
REMARK    3  A    between atoms: C_3  and  C_4 
REMARK    4  A    between atoms: C_7  and  O_6 
REMARK    5  A    between atoms: C_9  and  C_10 
REMARK    6  A    between atoms: N_15  and  C_14 
REMARK    7  A    between atoms: N_20  and  C_19 
REMARK       I    between atoms: C_22  and  N_20 
ROOT
ATOM      1  C   LIG d   1      -4.178  91.022 118.284  0.00  0.00     0.161 C 
ATOM      2  C   LIG d   1      -4.920  90.312 117.326  0.00  0.00     0.016 C 
ATOM      3  C   LIG d   1      -6.079  90.827 116.701  0.00  0.00     0.038 C 
ATOM      4  C   LIG d   1      -6.492  92.155 116.884  0.00  0.00     0.028 C 
ATOM      5  C   LIG d   1      -6.066  92.743 118.225  0.00  0.00    -0.047 C 
ATOM      6  C   LIG d   1      -4.549  92.514 118.414  0.00  0.00     0.091 C 
ENDROOT
BRANCH   1   7
ATOM      7  O   LIG d   1      -2.769  90.878 118.017  0.00  0.00    -0.368 OA
BRANCH   7   8
ATOM      8  C   LIG d   1      -2.164  89.633 118.445  0.00  0.00     0.119 C 
BRANCH   8   9
ATOM      9  C   LIG d   1      -2.500  89.443 119.937  0.00  0.00     0.028 C 
ATOM     10  C   LIG d   1      -1.576  90.260 120.855  0.00  0.00     0.006 C 
ENDBRANCH   8   9
BRANCH   8  11
ATOM     11  C   LIG d   1      -0.635  89.705 118.379  0.00  0.00     0.028 C 
ATOM     12  C   LIG d   1      -0.115  90.071 116.980  0.00  0.00     0.006 C 
ENDBRANCH   8  11
ENDBRANCH   7   8
ENDBRANCH   1   7
BRANCH   6  13
ATOM     13  N   LIG d   1      -4.066  92.985 119.738  0.00  0.00    -0.311 N 
ATOM     14  C   LIG d   1      -3.072  93.859 119.888  0.00  0.00     0.210 C 
ATOM     15  C   LIG d   1      -2.718  94.193 121.340  0.00  0.00     0.109 C 
ATOM     16  O   LIG d   1      -2.471  94.413 118.955  0.00  0.00    -0.276 OA
ATOM     17  H   LIG d   1      -4.519  92.609 120.549  0.00  0.00     0.149 HD
ENDBRANCH   6  13
BRANCH   5  18
ATOM     18  N   LIG d   1      -6.441  94.169 118.225  0.00  0.00     0.381 N 
ATOM     19  H   LIG d   1      -6.884  94.403 117.359  0.00  0.00    -0.090 HD
ATOM     20  H   LIG d   1      -5.607  94.724 118.312  0.00  0.00    -0.090 HD
ATOM     21  H   LIG d   1      -7.057  94.360 118.984  0.00  0.00    -0.090 HD
ENDBRANCH   5  18
BRANCH   3  22
ATOM     22  C   LIG d   1      -6.862  89.996 115.914  0.00  0.00     0.382 C 
ATOM     23  O   LIG d   1      -7.993  90.379 115.529  0.00  0.00    -0.241 OA
ATOM     24  O   LIG d   1      -6.470  88.850 115.620  0.00  0.00    -0.241 OA
ENDBRANCH   3  22
TORSDOF 7
ENDMDL
MODEL 3
REMARK VINA RESULT:      -5.2      2.373      3.826
REMARK  7 active torsions:
REMARK  status: ('A' for Active; 'I' for Inactive)
REMARK    1  A    between atoms: C_2  and  C_3 
REMARK    2  A    between atoms: C_3  and  O_6 
REMARK    3  A    between atoms: C_3  and  C_4 
REMARK    4  A    between atoms: C_7  and  O_6 
REMARK    5  A    between atoms: C_9  and  C_10 
REMARK    6  A    between atoms: N_15  and  C_14 
REMARK    7  A    between atoms: N_20  and  C_19 
REMARK       I    between atoms: C_22  and  N_20 
ROOT
ATOM      1  C   LIG d   1      -3.974  91.073 118.287  0.00  0.00     0.161 C 
ATOM      2  C   LIG d   1      -4.739  90.329 117.374  0.00  0.00     0.016 C 
ATOM      3  C   LIG d   1      -5.968  90.779 116.840  0.00  0.00     0.038 C 
ATOM      4  C   LIG d   1      -6.444  92.079 117.068  0.00  0.00     0.028 C 
ATOM      5  C   LIG d   1      -5.959  92.680 118.383  0.00  0.00    -0.047 C 
ATOM      6  C   LIG d   1      -4.421  92.540 118.461  0.00  0.00     0.091 C 
ENDROOT
BRANCH   1   7
ATOM      7  O   LIG d   1      -2.581  91.015 117.919  0.00  0.00    -0.368 OA
BRANCH   7   8
ATOM      8  C   LIG d   1      -1.692  90.401 118.884  0.00  0.00     0.119 C 
BRANCH   8   9
ATOM      9  C   LIG d   1      -0.723  89.489 118.107  0.00  0.00     0.028 C 
ATOM     10  C   LIG d   1      -0.037  90.220 116.941  0.00  0.00     0.006 C 
ENDBRANCH   8   9
BRANCH   8  11
ATOM     11  C   LIG d   1      -2.455  89.470 119.831  0.00  0.00     0.028 C 
ATOM     12  C   LIG d   1      -2.211  89.796 121.313  0.00  0.00     0.006 C 
ENDBRANCH   8  11
ENDBRANCH   7   8
ENDBRANCH   1   7
BRANCH   6  13
ATOM     13  N   LIG d   1      -3.873  93.027 119.754  0.00  0.00    -0.311 N 
ATOM     14  C   LIG d   1      -2.869  93.897 119.843  0.00  0.00     0.210 C 
ATOM     15  C   LIG d   1      -2.444  94.251 121.272  0.00  0.00     0.109 C 
ATOM     16  O   LIG d   1      -2.311  94.435 118.874  0.00  0.00    -0.276 OA
ATOM     17  H   LIG d   1      -4.288  92.666 120.590  0.00  0.00     0.149 HD
ENDBRANCH   6  13
BRANCH   5  18
ATOM     18  N   LIG d   1      -6.415  94.082 118.428  0.00  0.00     0.381 N 
ATOM     19  H   LIG d   1      -6.148  94.497 119.298  0.00  0.00    -0.090 HD
ATOM     20  H   LIG d   1      -7.417  94.100 118.364  0.00  0.00    -0.090 HD
ATOM     21  H   LIG d   1      -6.017  94.594 117.671  0.00  0.00    -0.090 HD
ENDBRANCH   5  18
BRANCH   3  22
ATOM     22  C   LIG d   1      -6.756  89.910 116.100  0.00  0.00     0.382 C 
ATOM     23  O   LIG d   1      -7.958  90.189 115.877  0.00  0.00    -0.241 OA
ATOM     24  O   LIG d   1      -6.290  88.830 115.690  0.00  0.00    -0.241 OA
ENDBRANCH   3  22
TORSDOF 7
ENDMDL
MODEL 4
REMARK VINA RESULT:      -5.1      2.132      4.142
REMARK  7 active torsions:
REMARK  status: ('A' for Active; 'I' for Inactive)
REMARK    1  A    between atoms: C_2  and  C_3 
REMARK    2  A    between atoms: C_3  and  O_6 
REMARK    3  A    between atoms: C_3  and  C_4 
REMARK    4  A    between atoms: C_7  and  O_6 
REMARK    5  A    between atoms: C_9  and  C_10 
REMARK    6  A    between atoms: N_15  and  C_14 
REMARK    7  A    between atoms: N_20  and  C_19 
REMARK       I    between atoms: C_22  and  N_20 
ROOT
ATOM      1  C   LIG d   1      -5.044  92.188 118.572  0.00  0.00     0.161 C 
ATOM      2  C   LIG d   1      -6.345  92.511 118.151  0.00  0.00     0.016 C 
ATOM      3  C   LIG d   1      -6.973  93.744 118.443  0.00  0.00     0.038 C 
ATOM      4  C   LIG d   1      -6.282  94.802 119.051  0.00  0.00     0.028 C 
ATOM      5  C   LIG d   1      -5.132  94.343 119.941  0.00  0.00    -0.047 C 
ATOM      6  C   LIG d   1      -4.235  93.372 119.141  0.00  0.00     0.091 C 
ENDROOT
BRANCH   1   7
ATOM      7  O   LIG d   1      -4.323  91.560 117.493  0.00  0.00    -0.368 OA
BRANCH   7   8
ATOM      8  C   LIG d   1      -4.487  90.127 117.366  0.00  0.00     0.119 C 
BRANCH   8   9
ATOM      9  C   LIG d   1      -3.097  89.484 117.537  0.00  0.00     0.028 C 
ATOM     10  C   LIG d   1      -2.746  89.230 119.013  0.00  0.00     0.006 C 
ENDBRANCH   8   9
BRANCH   8  11
ATOM     11  C   LIG d   1      -4.941  89.741 115.955  0.00  0.00     0.028 C 
ATOM     12  C   LIG d   1      -6.469  89.642 115.827  0.00  0.00     0.006 C 
ENDBRANCH   8  11
ENDBRANCH   7   8
ENDBRANCH   1   7
BRANCH   6  13
ATOM     13  N   LIG d   1      -3.132  92.810 119.964  0.00  0.00    -0.311 N 
ATOM     14  C   LIG d   1      -1.900  93.314 119.980  0.00  0.00     0.210 C 
ATOM     15  C   LIG d   1      -0.910  92.571 120.883  0.00  0.00     0.109 C 
ATOM     16  O   LIG d   1      -1.540  94.325 119.358  0.00  0.00    -0.276 OA
ATOM     17  H   LIG d   1      -3.345  92.008 120.524  0.00  0.00     0.149 HD
ENDBRANCH   6  13
BRANCH   5  18
ATOM     18  N   LIG d   1      -4.415  95.548 120.400  0.00  0.00     0.381 N 
ATOM     19  H   LIG d   1      -4.431  95.592 121.399  0.00  0.00    -0.090 HD
ATOM     20  H   LIG d   1      -4.884  96.362 120.041  0.00  0.00    -0.090 HD
ATOM     21  H   LIG d   1      -3.474  95.529 120.075  0.00  0.00    -0.090 HD
ENDBRANCH   5  18
BRANCH   3  22
ATOM     22  C   LIG d   1      -8.320  93.912 118.161  0.00  0.00     0.382 C 
ATOM     23  O   LIG d   1      -8.722  93.869 116.974  0.00  0.00    -0.241 OA
ATOM     24  O   LIG d   1      -9.132  94.150 119.075  0.00  0.00    -0.241 OA
ENDBRANCH   3  22
TORSDOF 7
ENDMDL
MODEL 5
REMARK VINA RESULT:      -4.9      2.375      4.850
REMARK  7 active torsions:
REMARK  status: ('A' for Active; 'I' for Inactive)
REMARK    1  A    between atoms: C_2  and  C_3 
REMARK    2  A    between atoms: C_3  and  O_6 
REMARK    3  A    between atoms: C_3  and  C_4 
REMARK    4  A    between atoms: C_7  and  O_6 
REMARK    5  A    between atoms: C_9  and  C_10 
REMARK    6  A    between atoms: N_15  and  C_14 
REMARK    7  A    between atoms: N_20  and  C_19 
REMARK       I    between atoms: C_22  and  N_20 
ROOT
ATOM      1  C   LIG d   1      -5.932  92.809 118.395  0.00  0.00     0.161 C 
ATOM      2  C   LIG d   1      -6.622  91.813 117.685  0.00  0.00     0.016 C 
ATOM      3  C   LIG d   1      -5.979  90.736 117.033  0.00  0.00     0.038 C 
ATOM      4  C   LIG d   1      -4.604  90.497 117.175  0.00  0.00     0.028 C 
ATOM      5  C   LIG d   1      -3.797  91.758 117.465  0.00  0.00    -0.047 C 
ATOM      6  C   LIG d   1      -4.442  92.504 118.655  0.00  0.00     0.091 C 
ENDROOT
BRANCH   1   7
ATOM      7  O   LIG d   1      -6.611  93.083 119.637  0.00  0.00    -0.368 OA
BRANCH   7   8
ATOM      8  C   LIG d   1      -7.301  94.354 119.719  0.00  0.00     0.119 C 
BRANCH   8   9
ATOM      9  C   LIG d   1      -8.762  94.117 119.289  0.00  0.00     0.028 C 
ATOM     10  C   LIG d   1      -9.724  94.056 120.488  0.00  0.00     0.006 C 
ENDBRANCH   8   9
BRANCH   8  11
ATOM     11  C   LIG d   1      -6.739  95.359 118.709  0.00  0.00     0.028 C 
ATOM     12  C   LIG d   1      -7.538  96.672 118.668  0.00  0.00     0.006 C 
ENDBRANCH   8  11
ENDBRANCH   7   8
ENDBRANCH   1   7
BRANCH   6  13
ATOM     13  N   LIG d   1      -3.764  93.793 118.951  0.00  0.00    -0.311 N 
ATOM     14  C   LIG d   1      -2.787  93.919 119.847  0.00  0.00     0.210 C 
ATOM     15  C   LIG d   1      -2.239  95.340 120.012  0.00  0.00     0.109 C 
ATOM     16  O   LIG d   1      -2.300  92.983 120.499  0.00  0.00    -0.276 OA
ATOM     17  H   LIG d   1      -4.076  94.599 118.445  0.00  0.00     0.149 HD
ENDBRANCH   6  13
BRANCH   5  18
ATOM     18  N   LIG d   1      -2.405  91.346 117.726  0.00  0.00     0.381 N 
ATOM     19  H   LIG d   1      -1.905  92.098 118.158  0.00  0.00    -0.090 HD
ATOM     20  H   LIG d   1      -1.960  91.132 116.852  0.00  0.00    -0.090 HD
ATOM     21  H   LIG d   1      -2.392  90.546 118.319  0.00  0.00    -0.090 HD
ENDBRANCH   5  18
BRANCH   3  22
ATOM     22  C   LIG d   1      -6.708  89.906 116.195  0.00  0.00     0.382 C 
ATOM     23  O   LIG d   1      -6.183  88.865 115.731  0.00  0.00    -0.241 OA
ATOM     24  O   LIG d   1      -7.869  90.208 115.861  0.00  0.00    -0.241 OA
ENDBRANCH   3  22
TORSDOF 7
ENDMDL
MODEL 6
REMARK VINA RESULT:      -4.9      2.490      4.411
REMARK  7 active torsions:
REMARK  status: ('A' for Active; 'I' for Inactive)
REMARK    1  A    between atoms: C_2  and  C_3 
REMARK    2  A    between atoms: C_3  and  O_6 
REMARK    3  A    between atoms: C_3  and  C_4 
REMARK    4  A    between atoms: C_7  and  O_6 
REMARK    5  A    between atoms: C_9  and  C_10 
REMARK    6  A    between atoms: N_15  and  C_14 
REMARK    7  A    between atoms: N_20  and  C_19 
REMARK       I    between atoms: C_22  and  N_20 
ROOT
ATOM      1  C   LIG d   1      -5.106  91.992 118.439  0.00  0.00     0.161 C 
ATOM      2  C   LIG d   1      -5.140  90.903 117.552  0.00  0.00     0.016 C 
ATOM      3  C   LIG d   1      -6.154  90.720 116.583  0.00  0.00     0.038 C 
ATOM      4  C   LIG d   1      -7.126  91.700 116.333  0.00  0.00     0.028 C 
ATOM      5  C   LIG d   1      -7.426  92.578 117.544  0.00  0.00    -0.047 C 
ATOM      6  C   LIG d   1      -6.096  93.128 118.107  0.00  0.00     0.091 C 
ENDROOT
BRANCH   1   7
ATOM      7  O   LIG d   1      -3.763  92.508 118.527  0.00  0.00    -0.368 OA
BRANCH   7   8
ATOM      8  C   LIG d   1      -3.107  92.362 119.810  0.00  0.00     0.119 C 
BRANCH   8   9
ATOM      9  C   LIG d   1      -2.834  93.778 120.354  0.00  0.00     0.028 C 
ATOM     10  C   LIG d   1      -2.644  94.812 119.231  0.00  0.00     0.006 C 
ENDBRANCH   8   9
BRANCH   8  11
ATOM     11  C   LIG d   1      -1.728  91.712 119.661  0.00  0.00     0.028 C 
ATOM     12  C   LIG d   1      -1.426  91.282 118.217  0.00  0.00     0.006 C 
ENDBRANCH   8  11
ENDBRANCH   7   8
ENDBRANCH   1   7
BRANCH   6  13
ATOM     13  N   LIG d   1      -6.292  93.929 119.343  0.00  0.00    -0.311 N 
ATOM     14  C   LIG d   1      -6.489  95.247 119.340  0.00  0.00     0.210 C 
ATOM     15  C   LIG d   1      -6.648  95.880 120.725  0.00  0.00     0.109 C 
ATOM     16  O   LIG d   1      -6.578  95.946 118.319  0.00  0.00    -0.276 OA
ATOM     17  H   LIG d   1      -6.266  93.437 120.215  0.00  0.00     0.149 HD
ENDBRANCH   6  13
BRANCH   5  18
ATOM     18  N   LIG d   1      -8.352  93.640 117.105  0.00  0.00     0.381 N 
ATOM     19  H   LIG d   1      -8.025  94.042 116.250  0.00  0.00    -0.090 HD
ATOM     20  H   LIG d   1      -8.374  94.361 117.805  0.00  0.00    -0.090 HD
ATOM     21  H   LIG d   1      -9.266  93.264 116.977  0.00  0.00    -0.090 HD
ENDBRANCH   5  18
BRANCH   3  22
ATOM     22  C   LIG d   1      -6.224  89.528 115.879  0.00  0.00     0.382 C 
ATOM     23  O   LIG d   1      -7.326  89.129 115.431  0.00  0.00    -0.241 OA
ATOM     24  O   LIG d   1      -5.208  88.824 115.725  0.00  0.00    -0.241 OA
ENDBRANCH   3  22
TORSDOF 7
ENDMDL
MODEL 7
REMARK VINA RESULT:      -4.7      2.181      3.761
REMARK  7 active torsions:
REMARK  status: ('A' for Active; 'I' for Inactive)
REMARK    1  A    between atoms: C_2  and  C_3 
REMARK    2  A    between atoms: C_3  and  O_6 
REMARK    3  A    between atoms: C_3  and  C_4 
REMARK    4  A    between atoms: C_7  and  O_6 
REMARK    5  A    between atoms: C_9  and  C_10 
REMARK    6  A    between atoms: N_15  and  C_14 
REMARK    7  A    between atoms: N_20  and  C_19 
REMARK       I    between atoms: C_22  and  N_20 
ROOT
ATOM      1  C   LIG d   1      -4.973  92.477 118.337  0.00  0.00     0.161 C 
ATOM      2  C   LIG d   1      -6.039  91.807 117.714  0.00  0.00     0.016 C 
ATOM      3  C   LIG d   1      -5.880  90.619 116.964  0.00  0.00     0.038 C 
ATOM      4  C   LIG d   1      -4.657  89.934 116.912  0.00  0.00     0.028 C 
ATOM      5  C   LIG d   1      -3.446  90.839 117.106  0.00  0.00    -0.047 C 
ATOM      6  C   LIG d   1      -3.650  91.684 118.384  0.00  0.00     0.091 C 
ENDROOT
BRANCH   1   7
ATOM      7  O   LIG d   1      -5.361  92.885 119.664  0.00  0.00    -0.368 OA
BRANCH   7   8
ATOM      8  C   LIG d   1      -6.725  93.348 119.815  0.00  0.00     0.119 C 
BRANCH   8   9
ATOM      9  C   LIG d   1      -6.716  94.880 119.649  0.00  0.00     0.028 C 
ATOM     10  C   LIG d   1      -7.487  95.339 118.400  0.00  0.00     0.006 C 
ENDBRANCH   8   9
BRANCH   8  11
ATOM     11  C   LIG d   1      -7.245  93.097 121.234  0.00  0.00     0.028 C 
ATOM     12  C   LIG d   1      -6.152  93.249 122.304  0.00  0.00     0.006 C 
ENDBRANCH   8  11
ENDBRANCH   7   8
ENDBRANCH   1   7
BRANCH   6  13
ATOM     13  N   LIG d   1      -2.549  92.658 118.602  0.00  0.00    -0.311 N 
ATOM     14  C   LIG d   1      -1.481  92.401 119.356  0.00  0.00     0.210 C 
ATOM     15  C   LIG d   1      -0.475  93.551 119.464  0.00  0.00     0.109 C 
ATOM     16  O   LIG d   1      -1.257  91.319 119.919  0.00  0.00    -0.276 OA
ATOM     17  H   LIG d   1      -2.635  93.551 118.157  0.00  0.00     0.149 HD
ENDBRANCH   6  13
BRANCH   5  18
ATOM     18  N   LIG d   1      -2.250  89.978 117.168  0.00  0.00     0.381 N 
ATOM     19  H   LIG d   1      -1.757  90.143 118.022  0.00  0.00    -0.090 HD
ATOM     20  H   LIG d   1      -1.642  90.210 116.402  0.00  0.00    -0.090 HD
ATOM     21  H   LIG d   1      -2.517  89.020 117.110  0.00  0.00    -0.090 HD
ENDBRANCH   5  18
BRANCH   3  22
ATOM     22  C   LIG d   1      -6.943  90.127 116.222  0.00  0.00     0.382 C 
ATOM     23  O   LIG d   1      -7.724  90.920 115.644  0.00  0.00    -0.241 OA
ATOM     24  O   LIG d   1      -7.157  88.901 116.161  0.00  0.00    -0.241 OA
ENDBRANCH   3  22
TORSDOF 7
ENDMDL
MODEL 8
REMARK VINA RESULT:      -4.5      2.454      4.737
REMARK  7 active torsions:
REMARK  status: ('A' for Active; 'I' for Inactive)
REMARK    1  A    between atoms: C_2  and  C_3 
REMARK    2  A    between atoms: C_3  and  O_6 
REMARK    3  A    between atoms: C_3  and  C_4 
REMARK    4  A    between atoms: C_7  and  O_6 
REMARK    5  A    between atoms: C_9  and  C_10 
REMARK    6  A    between atoms: N_15  and  C_14 
REMARK    7  A    between atoms: N_20  and  C_19 
REMARK       I    between atoms: C_22  and  N_20 
ROOT
ATOM      1  C   LIG d   1      -3.805  92.268 118.237  0.00  0.00     0.161 C 
ATOM      2  C   LIG d   1      -4.626  92.845 119.220  0.00  0.00     0.016 C 
ATOM      3  C   LIG d   1      -4.220  93.924 120.037  0.00  0.00     0.038 C 
ATOM      4  C   LIG d   1      -3.011  94.603 119.823  0.00  0.00     0.028 C 
ATOM      5  C   LIG d   1      -1.936  93.735 119.176  0.00  0.00    -0.047 C 
ATOM      6  C   LIG d   1      -2.524  93.066 117.914  0.00  0.00     0.091 C 
ENDROOT
BRANCH   1   7
ATOM      7  O   LIG d   1      -4.568  92.037 117.036  0.00  0.00    -0.368 OA
BRANCH   7   8
ATOM      8  C   LIG d   1      -5.896  91.487 117.221  0.00  0.00     0.119 C 
BRANCH   8   9
ATOM      9  C   LIG d   1      -5.920  90.100 116.550  0.00  0.00     0.028 C 
ATOM     10  C   LIG d   1      -7.341  89.666 116.152  0.00  0.00     0.006 C 
ENDBRANCH   8   9
BRANCH   8  11
ATOM     11  C   LIG d   1      -6.949  92.315 116.479  0.00  0.00     0.028 C 
ATOM     12  C   LIG d   1      -7.715  93.273 117.405  0.00  0.00     0.006 C 
ENDBRANCH   8  11
ENDBRANCH   7   8
ENDBRANCH   1   7
BRANCH   6  13
ATOM     13  N   LIG d   1      -1.565  92.134 117.267  0.00  0.00    -0.311 N 
ATOM     14  C   LIG d   1      -1.041  91.076 117.884  0.00  0.00     0.210 C 
ATOM     15  C   LIG d   1      -0.057  90.258 117.042  0.00  0.00     0.109 C 
ATOM     16  O   LIG d   1      -1.322  90.720 119.038  0.00  0.00    -0.276 OA
ATOM     17  H   LIG d   1      -1.305  92.330 116.320  0.00  0.00     0.149 HD
ENDBRANCH   6  13
BRANCH   5  18
ATOM     18  N   LIG d   1      -0.779  94.603 118.885  0.00  0.00     0.381 N 
ATOM     19  H   LIG d   1       0.034  94.042 118.729  0.00  0.00    -0.090 HD
ATOM     20  H   LIG d   1      -0.607  95.193 119.680  0.00  0.00    -0.090 HD
ATOM     21  H   LIG d   1      -0.965  95.161 118.081  0.00  0.00    -0.090 HD
ENDBRANCH   5  18
BRANCH   3  22
ATOM     22  C   LIG d   1      -5.011  94.310 121.109  0.00  0.00     0.382 C 
ATOM     23  O   LIG d   1      -4.772  95.385 121.710  0.00  0.00    -0.241 OA
ATOM     24  O   LIG d   1      -5.932  93.575 121.511  0.00  0.00    -0.241 OA
ENDBRANCH   3  22
TORSDOF 7
ENDMDL
MODEL 9
REMARK VINA RESULT:      -4.4      2.024      5.051
REMARK  7 active torsions:
REMARK  status: ('A' for Active; 'I' for Inactive)
REMARK    1  A    between atoms: C_2  and  C_3 
REMARK    2  A    between atoms: C_3  and  O_6 
REMARK    3  A    between atoms: C_3  and  C_4 
REMARK    4  A    between atoms: C_7  and  O_6 
REMARK    5  A    between atoms: C_9  and  C_10 
REMARK    6  A    between atoms: N_15  and  C_14 
REMARK    7  A    between atoms: N_20  and  C_19 
REMARK       I    between atoms: C_22  and  N_20 
ROOT
ATOM      1  C   LIG d   1      -4.822  92.637 119.353  0.00  0.00     0.161 C 
ATOM      2  C   LIG d   1      -3.791  91.799 118.899  0.00  0.00     0.016 C 
ATOM      3  C   LIG d   1      -3.947  90.878 117.837  0.00  0.00     0.038 C 
ATOM      4  C   LIG d   1      -5.110  90.840 117.054  0.00  0.00     0.028 C 
ATOM      5  C   LIG d   1      -6.355  91.313 117.795  0.00  0.00    -0.047 C 
ATOM      6  C   LIG d   1      -6.064  92.688 118.438  0.00  0.00     0.091 C 
ENDROOT
BRANCH   1   7
ATOM      7  O   LIG d   1      -4.310  93.966 119.577  0.00  0.00    -0.368 OA
BRANCH   7   8
ATOM      8  C   LIG d   1      -2.877  94.073 119.762  0.00  0.00     0.119 C 
BRANCH   8   9
ATOM      9  C   LIG d   1      -2.630  94.536 121.211  0.00  0.00     0.028 C 
ATOM     10  C   LIG d   1      -3.938  94.723 121.998  0.00  0.00     0.006 C 
ENDBRANCH   8   9
BRANCH   8  11
ATOM     11  C   LIG d   1      -2.282  95.174 118.878  0.00  0.00     0.028 C 
ATOM     12  C   LIG d   1      -3.088  96.481 118.932  0.00  0.00     0.006 C 
ENDBRANCH   8  11
ENDBRANCH   7   8
ENDBRANCH   1   7
BRANCH   6  13
ATOM     13  N   LIG d   1      -7.203  93.186 119.254  0.00  0.00    -0.311 N 
ATOM     14  C   LIG d   1      -8.216  93.886 118.747  0.00  0.00     0.210 C 
ATOM     15  C   LIG d   1      -9.276  94.318 119.765  0.00  0.00     0.109 C 
ATOM     16  O   LIG d   1      -8.354  94.163 117.546  0.00  0.00    -0.276 OA
ATOM     17  H   LIG d   1      -7.187  92.979 120.233  0.00  0.00     0.149 HD
ENDBRANCH   6  13
BRANCH   5  18
ATOM     18  N   LIG d   1      -7.464  91.353 116.823  0.00  0.00     0.381 N 
ATOM     19  H   LIG d   1      -7.843  92.278 116.779  0.00  0.00    -0.090 HD
ATOM     20  H   LIG d   1      -8.190  90.730 117.132  0.00  0.00    -0.090 HD
ATOM     21  H   LIG d   1      -7.139  91.075 115.923  0.00  0.00    -0.090 HD
ENDBRANCH   5  18
BRANCH   3  22
ATOM     22  C   LIG d   1      -2.946  89.954 117.576  0.00  0.00     0.382 C 
ATOM     23  O   LIG d   1      -1.756  90.335 117.461  0.00  0.00    -0.241 OA
ATOM     24  O   LIG d   1      -3.224  88.752 117.411  0.00  0.00    -0.241 OA
ENDBRANCH   3  22
TORSDOF 7
ENDMDL
