MODEL 1
REMARK VINA RESULT:      -5.3      0.000      0.000
REMARK  7 active torsions:
REMARK  status: ('A' for Active; 'I' for Inactive)
REMARK    1  A    between atoms: C_2  and  C_3 
REMARK    2  A    between atoms: C_3  and  O_6 
REMARK    3  A    between atoms: C_3  and  C_4 
REMARK    4  A    between atoms: C_7  and  O_6 
REMARK    5  A    between atoms: C_9  and  C_10 
REMARK    6  A    between atoms: N_15  and  C_14 
REMARK    7  A    between atoms: N_20  and  C_19 
REMARK       I    between atoms: C_22  and  N_20 
ROOT
ATOM      1  C   LIG d   1      -5.734  93.065 117.721  0.00  0.00     0.161 C 
ATOM      2  C   LIG d   1      -6.471  91.952 117.284  0.00  0.00     0.016 C 
ATOM      3  C   LIG d   1      -5.906  90.670 117.096  0.00  0.00     0.038 C 
ATOM      4  C   LIG d   1      -4.589  90.377 117.480  0.00  0.00     0.028 C 
ATOM      5  C   LIG d   1      -3.665  91.590 117.451  0.00  0.00    -0.047 C 
ATOM      6  C   LIG d   1      -4.322  92.739 118.250  0.00  0.00     0.091 C 
ENDROOT
BRANCH   1   7
ATOM      7  O   LIG d   1      -6.486  93.790 118.714  0.00  0.00    -0.368 OA
BRANCH   7   8
ATOM      8  C   LIG d   1      -6.938  95.112 118.332  0.00  0.00     0.119 C 
BRANCH   8   9
ATOM      9  C   LIG d   1      -6.697  96.049 119.531  0.00  0.00     0.028 C 
ATOM     10  C   LIG d   1      -5.840  95.392 120.626  0.00  0.00     0.006 C 
ENDBRANCH   8   9
BRANCH   8  11
ATOM     11  C   LIG d   1      -8.452  95.137 118.096  0.00  0.00     0.028 C 
ATOM     12  C   LIG d   1      -9.259  94.960 119.391  0.00  0.00     0.006 C 
ENDBRANCH   8  11
ENDBRANCH   7   8
ENDBRANCH   1   7
BRANCH   6  13
ATOM     13  N   LIG d   1      -3.523  93.991 118.202  0.00  0.00    -0.311 N 
ATOM     14  C   LIG d   1      -2.636  94.331 119.136  0.00  0.00     0.210 C 
ATOM     15  C   LIG d   1      -1.936  95.674 118.904  0.00  0.00     0.109 C 
ATOM     16  O   LIG d   1      -2.340  93.634 120.118  0.00  0.00    -0.276 OA
ATOM     17  H   LIG d   1      -3.677  94.601 117.423  0.00  0.00     0.149 HD
ENDBRANCH   6  13
BRANCH   5  18
ATOM     18  N   LIG d   1      -2.363  91.172 118.003  0.00  0.00     0.381 N 
ATOM     19  H   LIG d   1      -2.422  90.229 118.333  0.00  0.00    -0.090 HD
ATOM     20  H   LIG d   1      -2.135  91.764 118.782  0.00  0.00    -0.090 HD
ATOM     21  H   LIG d   1      -1.657  91.244 117.304  0.00  0.00    -0.090 HD
ENDBRANCH   5  18
BRANCH   3  22
ATOM     22  C   LIG d   1      -6.650  89.674 116.482  0.00  0.00     0.382 C 
ATOM     23  O   LIG d   1      -6.079  88.816 115.767  0.00  0.00    -0.241 OA
ATOM     24  O   LIG d   1      -7.890  89.650 116.597  0.00  0.00    -0.241 OA
ENDBRANCH   3  22
TORSDOF 7
ENDMDL
MODEL 2
REMARK VINA RESULT:      -5.1      1.927      4.953
REMARK  7 active torsions:
REMARK  status: ('A' for Active; 'I' for Inactive)
REMARK    1  A    between atoms: C_2  and  C_3 
REMARK    2  A    between atoms: C_3  and  O_6 
REMARK    3  A    between atoms: C_3  and  C_4 
REMARK    4  A    between atoms: C_7  and  O_6 
REMARK    5  A    between atoms: C_9  and  C_10 
REMARK    6  A    between atoms: N_15  and  C_14 
REMARK    7  A    between atoms: N_20  and  C_19 
REMARK       I    between atoms: C_22  and  N_20 
ROOT
ATOM      1  C   LIG d   1      -5.747  92.936 117.783  0.00  0.00     0.161 C 
ATOM      2  C   LIG d   1      -6.993  93.580 117.722  0.00  0.00     0.016 C 
ATOM      3  C   LIG d   1      -7.292  94.765 118.434  0.00  0.00     0.038 C 
ATOM      4  C   LIG d   1      -6.309  95.474 119.140  0.00  0.00     0.028 C 
ATOM      5  C   LIG d   1      -5.169  94.593 119.640  0.00  0.00    -0.047 C 
ATOM      6  C   LIG d   1      -4.628  93.755 118.460  0.00  0.00     0.091 C 
ENDROOT
BRANCH   1   7
ATOM      7  O   LIG d   1      -5.341  92.531 116.460  0.00  0.00    -0.368 OA
BRANCH   7   8
ATOM      8  C   LIG d   1      -5.441  91.116 116.168  0.00  0.00     0.119 C 
BRANCH   8   9
ATOM      9  C   LIG d   1      -6.907  90.822 115.795  0.00  0.00     0.028 C 
ATOM     10  C   LIG d   1      -7.426  89.522 116.433  0.00  0.00     0.006 C 
ENDBRANCH   8   9
BRANCH   8  11
ATOM     11  C   LIG d   1      -5.161  90.269 117.412  0.00  0.00     0.028 C 
ATOM     12  C   LIG d   1      -3.809  89.541 117.347  0.00  0.00     0.006 C 
ENDBRANCH   8  11
ENDBRANCH   7   8
ENDBRANCH   1   7
BRANCH   6  13
ATOM     13  N   LIG d   1      -3.566  92.803 118.880  0.00  0.00    -0.311 N 
ATOM     14  C   LIG d   1      -2.303  92.885 118.466  0.00  0.00     0.210 C 
ATOM     15  C   LIG d   1      -1.374  91.792 119.004  0.00  0.00     0.109 C 
ATOM     16  O   LIG d   1      -1.856  93.777 117.729  0.00  0.00    -0.276 OA
ATOM     17  H   LIG d   1      -3.834  92.066 119.502  0.00  0.00     0.149 HD
ENDBRANCH   6  13
BRANCH   5  18
ATOM     18  N   LIG d   1      -4.151  95.478 120.237  0.00  0.00     0.381 N 
ATOM     19  H   LIG d   1      -3.784  96.092 119.537  0.00  0.00    -0.090 HD
ATOM     20  H   LIG d   1      -3.397  94.914 120.588  0.00  0.00    -0.090 HD
ATOM     21  H   LIG d   1      -4.552  96.008 120.978  0.00  0.00    -0.090 HD
ENDBRANCH   5  18
BRANCH   3  22
ATOM     22  C   LIG d   1      -8.598  95.231 118.475  0.00  0.00     0.382 C 
ATOM     23  O   LIG d   1      -9.527  94.462 118.820  0.00  0.00    -0.241 OA
ATOM     24  O   LIG d   1      -8.863  96.398 118.129  0.00  0.00    -0.241 OA
ENDBRANCH   3  22
TORSDOF 7
ENDMDL
MODEL 3
REMARK VINA RESULT:      -5.1      2.254      4.585
REMARK  7 active torsions:
REMARK  status: ('A' for Active; 'I' for Inactive)
REMARK    1  A    between atoms: C_2  and  C_3 
REMARK    2  A    between atoms: C_3  and  O_6 
REMARK    3  A    between atoms: C_3  and  C_4 
REMARK    4  A    between atoms: C_7  and  O_6 
REMARK    5  A    between atoms: C_9  and  C_10 
REMARK    6  A    between atoms: N_15  and  C_14 
REMARK    7  A    between atoms: N_20  and  C_19 
REMARK       I    between atoms: C_22  and  N_20 
ROOT
ATOM      1  C   LIG d   1      -3.897  91.299 118.162  0.00  0.00     0.161 C 
ATOM      2  C   LIG d   1      -4.695  90.356 117.492  0.00  0.00     0.016 C 
ATOM      3  C   LIG d   1      -5.958  90.661 116.935  0.00  0.00     0.038 C 
ATOM      4  C   LIG d   1      -6.445  91.975 116.878  0.00  0.00     0.028 C 
ATOM      5  C   LIG d   1      -5.904  92.871 117.987  0.00  0.00    -0.047 C 
ATOM      6  C   LIG d   1      -4.362  92.762 118.012  0.00  0.00     0.091 C 
ENDROOT
BRANCH   1   7
ATOM      7  O   LIG d   1      -2.525  91.164 117.743  0.00  0.00    -0.368 OA
BRANCH   7   8
ATOM      8  C   LIG d   1      -1.613  90.602 118.718  0.00  0.00     0.119 C 
BRANCH   8   9
ATOM      9  C   LIG d   1      -1.238  89.186 118.240  0.00  0.00     0.028 C 
ATOM     10  C   LIG d   1      -2.094  88.096 118.907  0.00  0.00     0.006 C 
ENDBRANCH   8   9
BRANCH   8  11
ATOM     11  C   LIG d   1      -2.298  90.405 120.073  0.00  0.00     0.028 C 
ATOM     12  C   LIG d   1      -1.680  91.267 121.185  0.00  0.00     0.006 C 
ENDBRANCH   8  11
ENDBRANCH   7   8
ENDBRANCH   1   7
BRANCH   6  13
ATOM     13  N   LIG d   1      -3.757  93.543 119.123  0.00  0.00    -0.311 N 
ATOM     14  C   LIG d   1      -2.677  94.308 118.978  0.00  0.00     0.210 C 
ATOM     15  C   LIG d   1      -2.206  95.010 120.255  0.00  0.00     0.109 C 
ATOM     16  O   LIG d   1      -2.082  94.496 117.906  0.00  0.00    -0.276 OA
ATOM     17  H   LIG d   1      -4.194  93.472 120.021  0.00  0.00     0.149 HD
ENDBRANCH   6  13
BRANCH   5  18
ATOM     18  N   LIG d   1      -6.383  94.242 117.727  0.00  0.00     0.381 N 
ATOM     19  H   LIG d   1      -6.666  94.670 118.586  0.00  0.00    -0.090 HD
ATOM     20  H   LIG d   1      -7.182  94.197 117.119  0.00  0.00    -0.090 HD
ATOM     21  H   LIG d   1      -5.661  94.780 117.301  0.00  0.00    -0.090 HD
ENDBRANCH   5  18
BRANCH   3  22
ATOM     22  C   LIG d   1      -6.766  89.638 116.463  0.00  0.00     0.382 C 
ATOM     23  O   LIG d   1      -6.299  88.785 115.670  0.00  0.00    -0.241 OA
ATOM     24  O   LIG d   1      -7.968  89.582 116.785  0.00  0.00    -0.241 OA
ENDBRANCH   3  22
TORSDOF 7
ENDMDL
MODEL 4
REMARK VINA RESULT:      -4.9      2.023      4.437
REMARK  7 active torsions:
REMARK  status: ('A' for Active; 'I' for Inactive)
REMARK    1  A    between atoms: C_2  and  C_3 
REMARK    2  A    between atoms: C_3  and  O_6 
REMARK    3  A    between atoms: C_3  and  C_4 
REMARK    4  A    between atoms: C_7  and  O_6 
REMARK    5  A    between atoms: C_9  and  C_10 
REMARK    6  A    between atoms: N_15  and  C_14 
REMARK    7  A    between atoms: N_20  and  C_19 
REMARK       I    between atoms: C_22  and  N_20 
ROOT
ATOM      1  C   LIG d   1      -4.196  92.039 117.961  0.00  0.00     0.161 C 
ATOM      2  C   LIG d   1      -4.440  90.844 117.264  0.00  0.00     0.016 C 
ATOM      3  C   LIG d   1      -5.595  90.621 116.480  0.00  0.00     0.038 C 
ATOM      4  C   LIG d   1      -6.520  91.643 116.216  0.00  0.00     0.028 C 
ATOM      5  C   LIG d   1      -6.575  92.707 117.307  0.00  0.00    -0.047 C 
ATOM      6  C   LIG d   1      -5.140  93.204 117.595  0.00  0.00     0.091 C 
ENDROOT
BRANCH   1   7
ATOM      7  O   LIG d   1      -2.821  92.434 117.788  0.00  0.00    -0.368 OA
BRANCH   7   8
ATOM      8  C   LIG d   1      -1.967  92.294 118.950  0.00  0.00     0.119 C 
BRANCH   8   9
ATOM      9  C   LIG d   1      -1.050  93.532 119.002  0.00  0.00     0.028 C 
ATOM     10  C   LIG d   1      -1.594  94.701 118.164  0.00  0.00     0.006 C 
ENDBRANCH   8   9
BRANCH   8  11
ATOM     11  C   LIG d   1      -1.023  91.096 118.806  0.00  0.00     0.028 C 
ATOM     12  C   LIG d   1      -0.443  90.961 117.389  0.00  0.00     0.006 C 
ENDBRANCH   8  11
ENDBRANCH   7   8
ENDBRANCH   1   7
BRANCH   6  13
ATOM     13  N   LIG d   1      -5.093  94.186 118.710  0.00  0.00    -0.311 N 
ATOM     14  C   LIG d   1      -5.304  93.860 119.984  0.00  0.00     0.210 C 
ATOM     15  C   LIG d   1      -5.229  95.029 120.971  0.00  0.00     0.109 C 
ATOM     16  O   LIG d   1      -5.513  92.709 120.394  0.00  0.00    -0.276 OA
ATOM     17  H   LIG d   1      -4.899  95.139 118.470  0.00  0.00     0.149 HD
ENDBRANCH   6  13
BRANCH   5  18
ATOM     18  N   LIG d   1      -7.475  93.778 116.840  0.00  0.00     0.381 N 
ATOM     19  H   LIG d   1      -7.011  94.662 116.904  0.00  0.00    -0.090 HD
ATOM     20  H   LIG d   1      -8.285  93.803 117.433  0.00  0.00    -0.090 HD
ATOM     21  H   LIG d   1      -7.749  93.606 115.898  0.00  0.00    -0.090 HD
ENDBRANCH   5  18
BRANCH   3  22
ATOM     22  C   LIG d   1      -5.855  89.353 115.983  0.00  0.00     0.382 C 
ATOM     23  O   LIG d   1      -6.992  88.844 116.128  0.00  0.00    -0.241 OA
ATOM     24  O   LIG d   1      -4.953  88.695 115.430  0.00  0.00    -0.241 OA
ENDBRANCH   3  22
TORSDOF 7
ENDMDL
MODEL 5
REMARK VINA RESULT:      -4.7      1.676      2.247
REMARK  7 active torsions:
REMARK  status: ('A' for Active; 'I' for Inactive)
REMARK    1  A    between atoms: C_2  and  C_3 
REMARK    2  A    between atoms: C_3  and  O_6 
REMARK    3  A    between atoms: C_3  and  C_4 
REMARK    4  A    between atoms: C_7  and  O_6 
REMARK    5  A    between atoms: C_9  and  C_10 
REMARK    6  A    between atoms: N_15  and  C_14 
REMARK    7  A    between atoms: N_20  and  C_19 
REMARK       I    between atoms: C_22  and  N_20 
ROOT
ATOM      1  C   LIG d   1      -4.325  92.570 117.424  0.00  0.00     0.161 C 
ATOM      2  C   LIG d   1      -5.517  91.958 117.003  0.00  0.00     0.016 C 
ATOM      3  C   LIG d   1      -5.647  90.566 116.797  0.00  0.00     0.038 C 
ATOM      4  C   LIG d   1      -4.628  89.667 117.146  0.00  0.00     0.028 C 
ATOM      5  C   LIG d   1      -3.234  90.283 117.097  0.00  0.00    -0.047 C 
ATOM      6  C   LIG d   1      -3.236  91.594 117.916  0.00  0.00     0.091 C 
ENDROOT
BRANCH   1   7
ATOM      7  O   LIG d   1      -4.611  93.553 118.438  0.00  0.00    -0.368 OA
BRANCH   7   8
ATOM      8  C   LIG d   1      -5.917  93.466 119.060  0.00  0.00     0.119 C 
BRANCH   8   9
ATOM      9  C   LIG d   1      -6.559  94.865 118.987  0.00  0.00     0.028 C 
ATOM     10  C   LIG d   1      -7.619  94.967 117.878  0.00  0.00     0.006 C 
ENDBRANCH   8   9
BRANCH   8  11
ATOM     11  C   LIG d   1      -5.803  93.149 120.554  0.00  0.00     0.028 C 
ATOM     12  C   LIG d   1      -7.052  93.563 121.348  0.00  0.00     0.006 C 
ENDBRANCH   8  11
ENDBRANCH   7   8
ENDBRANCH   1   7
BRANCH   6  13
ATOM     13  N   LIG d   1      -1.932  92.304 117.851  0.00  0.00    -0.311 N 
ATOM     14  C   LIG d   1      -0.979  92.173 118.772  0.00  0.00     0.210 C 
ATOM     15  C   LIG d   1       0.280  93.011 118.524  0.00  0.00     0.109 C 
ATOM     16  O   LIG d   1      -1.044  91.418 119.754  0.00  0.00    -0.276 OA
ATOM     17  H   LIG d   1      -1.783  92.914 117.071  0.00  0.00     0.149 HD
ENDBRANCH   6  13
BRANCH   5  18
ATOM     18  N   LIG d   1      -2.285  89.279 117.615  0.00  0.00     0.381 N 
ATOM     19  H   LIG d   1      -1.527  89.738 118.081  0.00  0.00    -0.090 HD
ATOM     20  H   LIG d   1      -1.910  88.757 116.842  0.00  0.00    -0.090 HD
ATOM     21  H   LIG d   1      -2.749  88.664 118.247  0.00  0.00    -0.090 HD
ENDBRANCH   5  18
BRANCH   3  22
ATOM     22  C   LIG d   1      -6.792  90.063 116.199  0.00  0.00     0.382 C 
ATOM     23  O   LIG d   1      -7.640  90.848 115.709  0.00  0.00    -0.241 OA
ATOM     24  O   LIG d   1      -7.010  88.837 116.182  0.00  0.00    -0.241 OA
ENDBRANCH   3  22
TORSDOF 7
ENDMDL
MODEL 6
REMARK VINA RESULT:      -4.7      2.453      4.609
REMARK  7 active torsions:
REMARK  status: ('A' for Active; 'I' for Inactive)
REMARK    1  A    between atoms: C_2  and  C_3 
REMARK    2  A    between atoms: C_3  and  O_6 
REMARK    3  A    between atoms: C_3  and  C_4 
REMARK    4  A    between atoms: C_7  and  O_6 
REMARK    5  A    between atoms: C_9  and  C_10 
REMARK    6  A    between atoms: N_15  and  C_14 
REMARK    7  A    between atoms: N_20  and  C_19 
REMARK       I    between atoms: C_22  and  N_20 
ROOT
ATOM      1  C   LIG d   1      -3.850  92.055 118.027  0.00  0.00     0.161 C 
ATOM      2  C   LIG d   1      -5.041  92.743 117.741  0.00  0.00     0.016 C 
ATOM      3  C   LIG d   1      -6.041  92.242 116.876  0.00  0.00     0.038 C 
ATOM      4  C   LIG d   1      -5.986  90.942 116.353  0.00  0.00     0.028 C 
ATOM      5  C   LIG d   1      -4.565  90.406 116.210  0.00  0.00    -0.047 C 
ATOM      6  C   LIG d   1      -3.823  90.586 117.555  0.00  0.00     0.091 C 
ENDROOT
BRANCH   1   7
ATOM      7  O   LIG d   1      -3.569  92.132 119.439  0.00  0.00    -0.368 OA
BRANCH   7   8
ATOM      8  C   LIG d   1      -2.507  93.037 119.828  0.00  0.00     0.119 C 
BRANCH   8   9
ATOM      9  C   LIG d   1      -3.164  94.358 120.273  0.00  0.00     0.028 C 
ATOM     10  C   LIG d   1      -2.478  95.591 119.660  0.00  0.00     0.006 C 
ENDBRANCH   8   9
BRANCH   8  11
ATOM     11  C   LIG d   1      -1.623  93.407 118.633  0.00  0.00     0.028 C 
ATOM     12  C   LIG d   1      -0.220  92.784 118.714  0.00  0.00     0.006 C 
ENDBRANCH   8  11
ENDBRANCH   7   8
ENDBRANCH   1   7
BRANCH   6  13
ATOM     13  N   LIG d   1      -2.400  90.164 117.477  0.00  0.00    -0.311 N 
ATOM     14  C   LIG d   1      -1.970  88.963 117.858  0.00  0.00     0.210 C 
ATOM     15  C   LIG d   1      -0.461  88.741 117.714  0.00  0.00     0.109 C 
ATOM     16  O   LIG d   1      -2.699  88.048 118.271  0.00  0.00    -0.276 OA
ATOM     17  H   LIG d   1      -1.745  90.834 117.125  0.00  0.00     0.149 HD
ENDBRANCH   6  13
BRANCH   5  18
ATOM     18  N   LIG d   1      -4.661  88.996 115.787  0.00  0.00     0.381 N 
ATOM     19  H   LIG d   1      -4.806  88.948 114.798  0.00  0.00    -0.090 HD
ATOM     20  H   LIG d   1      -5.450  88.573 116.243  0.00  0.00    -0.090 HD
ATOM     21  H   LIG d   1      -3.827  88.509 116.031  0.00  0.00    -0.090 HD
ENDBRANCH   5  18
BRANCH   3  22
ATOM     22  C   LIG d   1      -7.092  93.062 116.493  0.00  0.00     0.382 C 
ATOM     23  O   LIG d   1      -7.715  92.827 115.430  0.00  0.00    -0.241 OA
ATOM     24  O   LIG d   1      -7.396  94.059 117.174  0.00  0.00    -0.241 OA
ENDBRANCH   3  22
TORSDOF 7
ENDMDL
MODEL 7
REMARK VINA RESULT:      -4.7      2.355      4.948
REMARK  7 active torsions:
REMARK  status: ('A' for Active; 'I' for Inactive)
REMARK    1  A    between atoms: C_2  and  C_3 
REMARK    2  A    between atoms: C_3  and  O_6 
REMARK    3  A    between atoms: C_3  and  C_4 
REMARK    4  A    between atoms: C_7  and  O_6 
REMARK    5  A    between atoms: C_9  and  C_10 
REMARK    6  A    between atoms: N_15  and  C_14 
REMARK    7  A    between atoms: N_20  and  C_19 
REMARK       I    between atoms: C_22  and  N_20 
ROOT
ATOM      1  C   LIG d   1      -3.541  90.957 118.224  0.00  0.00     0.161 C 
ATOM      2  C   LIG d   1      -4.434  90.144 117.506  0.00  0.00     0.016 C 
ATOM      3  C   LIG d   1      -5.692  90.591 117.042  0.00  0.00     0.038 C 
ATOM      4  C   LIG d   1      -6.082  91.935 117.135  0.00  0.00     0.028 C 
ATOM      5  C   LIG d   1      -5.431  92.676 118.298  0.00  0.00    -0.047 C 
ATOM      6  C   LIG d   1      -3.902  92.457 118.239  0.00  0.00     0.091 C 
ENDROOT
BRANCH   1   7
ATOM      7  O   LIG d   1      -2.201  90.768 117.729  0.00  0.00    -0.368 OA
BRANCH   7   8
ATOM      8  C   LIG d   1      -1.450  89.680 118.321  0.00  0.00     0.119 C 
BRANCH   8   9
ATOM      9  C   LIG d   1      -1.623  89.777 119.850  0.00  0.00     0.028 C 
ATOM     10  C   LIG d   1      -0.514  90.610 120.514  0.00  0.00     0.006 C 
ENDBRANCH   8   9
BRANCH   8  11
ATOM     11  C   LIG d   1       0.053  89.840 118.072  0.00  0.00     0.028 C 
ATOM     12  C   LIG d   1       0.365  90.764 116.885  0.00  0.00     0.006 C 
ENDBRANCH   8  11
ENDBRANCH   7   8
ENDBRANCH   1   7
BRANCH   6  13
ATOM     13  N   LIG d   1      -3.195  93.078 119.389  0.00  0.00    -0.311 N 
ATOM     14  C   LIG d   1      -2.349  94.099 119.265  0.00  0.00     0.210 C 
ATOM     15  C   LIG d   1      -1.714  94.575 120.576  0.00  0.00     0.109 C 
ATOM     16  O   LIG d   1      -2.089  94.677 118.199  0.00  0.00    -0.276 OA
ATOM     17  H   LIG d   1      -3.372  92.692 120.296  0.00  0.00     0.149 HD
ENDBRANCH   6  13
BRANCH   5  18
ATOM     18  N   LIG d   1      -5.816  94.096 118.195  0.00  0.00     0.381 N 
ATOM     19  H   LIG d   1      -5.942  94.343 117.234  0.00  0.00    -0.090 HD
ATOM     20  H   LIG d   1      -5.077  94.662 118.572  0.00  0.00    -0.090 HD
ATOM     21  H   LIG d   1      -6.659  94.258 118.700  0.00  0.00    -0.090 HD
ENDBRANCH   5  18
BRANCH   3  22
ATOM     22  C   LIG d   1      -6.593  89.679 116.513  0.00  0.00     0.382 C 
ATOM     23  O   LIG d   1      -7.818  89.791 116.762  0.00  0.00    -0.241 OA
ATOM     24  O   LIG d   1      -6.192  88.721 115.825  0.00  0.00    -0.241 OA
ENDBRANCH   3  22
TORSDOF 7
ENDMDL
MODEL 8
REMARK VINA RESULT:      -4.6      2.499      4.194
REMARK  7 active torsions:
REMARK  status: ('A' for Active; 'I' for Inactive)
REMARK    1  A    between atoms: C_2  and  C_3 
REMARK    2  A    between atoms: C_3  and  O_6 
REMARK    3  A    between atoms: C_3  and  C_4 
REMARK    4  A    between atoms: C_7  and  O_6 
REMARK    5  A    between atoms: C_9  and  C_10 
REMARK    6  A    between atoms: N_15  and  C_14 
REMARK    7  A    between atoms: N_20  and  C_19 
REMARK       I    between atoms: C_22  and  N_20 
ROOT
ATOM      1  C   LIG d   1      -3.439  92.369 117.797  0.00  0.00     0.161 C 
ATOM      2  C   LIG d   1      -4.694  92.969 117.606  0.00  0.00     0.016 C 
ATOM      3  C   LIG d   1      -5.763  92.338 116.929  0.00  0.00     0.038 C 
ATOM      4  C   LIG d   1      -5.697  90.996 116.527  0.00  0.00     0.028 C 
ATOM      5  C   LIG d   1      -4.277  90.515 116.250  0.00  0.00    -0.047 C 
ATOM      6  C   LIG d   1      -3.384  90.863 117.464  0.00  0.00     0.091 C 
ENDROOT
BRANCH   1   7
ATOM      7  O   LIG d   1      -2.987  92.599 119.146  0.00  0.00    -0.368 OA
BRANCH   7   8
ATOM      8  C   LIG d   1      -4.016  92.912 120.118  0.00  0.00     0.119 C 
BRANCH   8   9
ATOM      9  C   LIG d   1      -3.464  94.019 121.037  0.00  0.00     0.028 C 
ATOM     10  C   LIG d   1      -2.408  94.891 120.336  0.00  0.00     0.006 C 
ENDBRANCH   8   9
BRANCH   8  11
ATOM     11  C   LIG d   1      -4.292  91.720 121.039  0.00  0.00     0.028 C 
ATOM     12  C   LIG d   1      -3.009  91.003 121.487  0.00  0.00     0.006 C 
ENDBRANCH   8  11
ENDBRANCH   7   8
ENDBRANCH   1   7
BRANCH   6  13
ATOM     13  N   LIG d   1      -1.960  90.503 117.241  0.00  0.00    -0.311 N 
ATOM     14  C   LIG d   1      -1.310  89.596 117.969  0.00  0.00     0.210 C 
ATOM     15  C   LIG d   1       0.159  89.391 117.585  0.00  0.00     0.109 C 
ATOM     16  O   LIG d   1      -1.820  88.919 118.874  0.00  0.00    -0.276 OA
ATOM     17  H   LIG d   1      -1.478  90.982 116.505  0.00  0.00     0.149 HD
ENDBRANCH   6  13
BRANCH   5  18
ATOM     18  N   LIG d   1      -4.341  89.068 115.976  0.00  0.00     0.381 N 
ATOM     19  H   LIG d   1      -3.455  88.646 116.169  0.00  0.00    -0.090 HD
ATOM     20  H   LIG d   1      -4.551  88.930 115.003  0.00  0.00    -0.090 HD
ATOM     21  H   LIG d   1      -5.047  88.645 116.538  0.00  0.00    -0.090 HD
ENDBRANCH   5  18
BRANCH   3  22
ATOM     22  C   LIG d   1      -6.901  93.065 116.612  0.00  0.00     0.382 C 
ATOM     23  O   LIG d   1      -7.328  93.079 115.433  0.00  0.00    -0.241 OA
ATOM     24  O   LIG d   1      -7.479  93.744 117.482  0.00  0.00    -0.241 OA
ENDBRANCH   3  22
TORSDOF 7
ENDMDL
MODEL 9
REMARK VINA RESULT:      -4.6      2.723      4.844
REMARK  7 active torsions:
REMARK  status: ('A' for Active; 'I' for Inactive)
REMARK    1  A    between atoms: C_2  and  C_3 
REMARK    2  A    between atoms: C_3  and  O_6 
REMARK    3  A    between atoms: C_3  and  C_4 
REMARK    4  A    between atoms: C_7  and  O_6 
REMARK    5  A    between atoms: C_9  and  C_10 
REMARK    6  A    between atoms: N_15  and  C_14 
REMARK    7  A    between atoms: N_20  and  C_19 
REMARK       I    between atoms: C_22  and  N_20 
ROOT
ATOM      1  C   LIG d   1      -3.865  91.574 118.063  0.00  0.00     0.161 C 
ATOM      2  C   LIG d   1      -4.995  92.372 117.818  0.00  0.00     0.016 C 
ATOM      3  C   LIG d   1      -5.982  92.050 116.859  0.00  0.00     0.038 C 
ATOM      4  C   LIG d   1      -5.985  90.821 116.182  0.00  0.00     0.028 C 
ATOM      5  C   LIG d   1      -4.596  90.211 116.029  0.00  0.00    -0.047 C 
ATOM      6  C   LIG d   1      -3.908  90.176 117.413  0.00  0.00     0.091 C 
ENDROOT
BRANCH   1   7
ATOM      7  O   LIG d   1      -3.645  91.460 119.483  0.00  0.00    -0.368 OA
BRANCH   7   8
ATOM      8  C   LIG d   1      -2.418  92.042 119.987  0.00  0.00     0.119 C 
BRANCH   8   9
ATOM      9  C   LIG d   1      -1.670  90.943 120.766  0.00  0.00     0.028 C 
ATOM     10  C   LIG d   1      -2.114  90.860 122.236  0.00  0.00     0.006 C 
ENDBRANCH   8   9
BRANCH   8  11
ATOM     11  C   LIG d   1      -2.703  93.143 121.012  0.00  0.00     0.028 C 
ATOM     12  C   LIG d   1      -2.729  94.547 120.387  0.00  0.00     0.006 C 
ENDBRANCH   8  11
ENDBRANCH   7   8
ENDBRANCH   1   7
BRANCH   6  13
ATOM     13  N   LIG d   1      -2.512  89.671 117.339  0.00  0.00    -0.311 N 
ATOM     14  C   LIG d   1      -2.099  88.565 117.956  0.00  0.00     0.210 C 
ATOM     15  C   LIG d   1      -0.615  88.234 117.766  0.00  0.00     0.109 C 
ATOM     16  O   LIG d   1      -2.827  87.810 118.617  0.00  0.00    -0.276 OA
ATOM     17  H   LIG d   1      -1.861  90.206 116.798  0.00  0.00     0.149 HD
ENDBRANCH   6  13
BRANCH   5  18
ATOM     18  N   LIG d   1      -4.760  88.873 115.430  0.00  0.00     0.381 N 
ATOM     19  H   LIG d   1      -5.671  88.518 115.639  0.00  0.00    -0.090 HD
ATOM     20  H   LIG d   1      -4.080  88.252 115.831  0.00  0.00    -0.090 HD
ATOM     21  H   LIG d   1      -4.633  88.923 114.443  0.00  0.00    -0.090 HD
ENDBRANCH   5  18
BRANCH   3  22
ATOM     22  C   LIG d   1      -6.961  92.979 116.541  0.00  0.00     0.382 C 
ATOM     23  O   LIG d   1      -7.541  92.923 115.430  0.00  0.00    -0.241 OA
ATOM     24  O   LIG d   1      -7.239  93.900 117.333  0.00  0.00    -0.241 OA
ENDBRANCH   3  22
TORSDOF 7
ENDMDL
