MODEL 1
REMARK VINA RESULT:      -5.4      0.000      0.000
REMARK  7 active torsions:
REMARK  status: ('A' for Active; 'I' for Inactive)
REMARK    1  A    between atoms: C_2  and  C_3 
REMARK    2  A    between atoms: C_3  and  O_6 
REMARK    3  A    between atoms: C_3  and  C_4 
REMARK    4  A    between atoms: C_7  and  O_6 
REMARK    5  A    between atoms: C_9  and  C_10 
REMARK    6  A    between atoms: N_15  and  C_14 
REMARK    7  A    between atoms: N_20  and  C_19 
REMARK       I    between atoms: C_22  and  N_20 
ROOT
ATOM      1  C   LIG d   1      -4.446  92.529 118.567  0.00  0.00     0.161 C 
ATOM      2  C   LIG d   1      -5.740  93.074 118.625  0.00  0.00     0.016 C 
ATOM      3  C   LIG d   1      -6.812  92.622 117.821  0.00  0.00     0.038 C 
ATOM      4  C   LIG d   1      -6.700  91.486 117.007  0.00  0.00     0.028 C 
ATOM      5  C   LIG d   1      -5.274  91.214 116.538  0.00  0.00    -0.047 C 
ATOM      6  C   LIG d   1      -4.334  91.215 117.765  0.00  0.00     0.091 C 
ENDROOT
BRANCH   1   7
ATOM      7  O   LIG d   1      -3.933  92.347 119.901  0.00  0.00    -0.368 OA
BRANCH   7   8
ATOM      8  C   LIG d   1      -2.812  93.186 120.273  0.00  0.00     0.119 C 
BRANCH   8   9
ATOM      9  C   LIG d   1      -2.538  94.140 119.094  0.00  0.00     0.028 C 
ATOM     10  C   LIG d   1      -1.070  94.100 118.636  0.00  0.00     0.006 C 
ENDBRANCH   8   9
BRANCH   8  11
ATOM     11  C   LIG d   1      -1.530  92.365 120.436  0.00  0.00     0.028 C 
ATOM     12  C   LIG d   1      -1.800  90.926 120.905  0.00  0.00     0.006 C 
ENDBRANCH   8  11
ENDBRANCH   7   8
ENDBRANCH   1   7
BRANCH   6  13
ATOM     13  N   LIG d   1      -2.908  91.040 117.386  0.00  0.00    -0.311 N 
ATOM     14  C   LIG d   1      -2.287  89.862 117.392  0.00  0.00     0.210 C 
ATOM     15  C   LIG d   1      -0.810  89.907 116.987  0.00  0.00     0.109 C 
ATOM     16  O   LIG d   1      -2.827  88.779 117.664  0.00  0.00    -0.276 OA
ATOM     17  H   LIG d   1      -2.402  91.863 117.122  0.00  0.00     0.149 HD
ENDBRANCH   6  13
BRANCH   5  18
ATOM     18  N   LIG d   1      -5.280  89.928 115.815  0.00  0.00     0.381 N 
ATOM     19  H   LIG d   1      -6.222  89.624 115.673  0.00  0.00    -0.090 HD
ATOM     20  H   LIG d   1      -4.807  89.239 116.373  0.00  0.00    -0.090 HD
ATOM     21  H   LIG d   1      -4.820  90.028 114.938  0.00  0.00    -0.090 HD
ENDBRANCH   5  18
BRANCH   3  22
ATOM     22  C   LIG d   1      -8.001  93.335 117.797  0.00  0.00     0.382 C 
ATOM     23  O   LIG d   1      -8.628  93.543 118.864  0.00  0.00    -0.241 OA
ATOM     24  O   LIG d   1      -8.476  93.735 116.718  0.00  0.00    -0.241 OA
ENDBRANCH   3  22
TORSDOF 7
ENDMDL
MODEL 2
REMARK VINA RESULT:      -5.3      1.236      1.967
REMARK  7 active torsions:
REMARK  status: ('A' for Active; 'I' for Inactive)
REMARK    1  A    between atoms: C_2  and  C_3 
REMARK    2  A    between atoms: C_3  and  O_6 
REMARK    3  A    between atoms: C_3  and  C_4 
REMARK    4  A    between atoms: C_7  and  O_6 
REMARK    5  A    between atoms: C_9  and  C_10 
REMARK    6  A    between atoms: N_15  and  C_14 
REMARK    7  A    between atoms: N_20  and  C_19 
REMARK       I    between atoms: C_22  and  N_20 
ROOT
ATOM      1  C   LIG d   1      -4.357  92.585 118.571  0.00  0.00     0.161 C 
ATOM      2  C   LIG d   1      -5.668  93.086 118.635  0.00  0.00     0.016 C 
ATOM      3  C   LIG d   1      -6.732  92.584 117.851  0.00  0.00     0.038 C 
ATOM      4  C   LIG d   1      -6.589  91.438 117.054  0.00  0.00     0.028 C 
ATOM      5  C   LIG d   1      -5.160  91.210 116.573  0.00  0.00    -0.047 C 
ATOM      6  C   LIG d   1      -4.207  91.264 117.789  0.00  0.00     0.091 C 
ENDROOT
BRANCH   1   7
ATOM      7  O   LIG d   1      -3.822  92.443 119.902  0.00  0.00    -0.368 OA
BRANCH   7   8
ATOM      8  C   LIG d   1      -4.248  91.270 120.638  0.00  0.00     0.119 C 
BRANCH   8   9
ATOM      9  C   LIG d   1      -4.884  91.756 121.955  0.00  0.00     0.028 C 
ATOM     10  C   LIG d   1      -6.420  91.698 121.922  0.00  0.00     0.006 C 
ENDBRANCH   8   9
BRANCH   8  11
ATOM     11  C   LIG d   1      -3.052  90.411 121.057  0.00  0.00     0.028 C 
ATOM     12  C   LIG d   1      -1.716  91.163 120.964  0.00  0.00     0.006 C 
ENDBRANCH   8  11
ENDBRANCH   7   8
ENDBRANCH   1   7
BRANCH   6  13
ATOM     13  N   LIG d   1      -2.779  91.133 117.396  0.00  0.00    -0.311 N 
ATOM     14  C   LIG d   1      -2.114  89.980 117.426  0.00  0.00     0.210 C 
ATOM     15  C   LIG d   1      -0.645  90.070 117.000  0.00  0.00     0.109 C 
ATOM     16  O   LIG d   1      -2.608  88.885 117.734  0.00  0.00    -0.276 OA
ATOM     17  H   LIG d   1      -2.309  91.967 117.103  0.00  0.00     0.149 HD
ENDBRANCH   6  13
BRANCH   5  18
ATOM     18  N   LIG d   1      -5.128  89.913 115.871  0.00  0.00     0.381 N 
ATOM     19  H   LIG d   1      -5.594  89.994 114.989  0.00  0.00    -0.090 HD
ATOM     20  H   LIG d   1      -5.618  89.231 116.424  0.00  0.00    -0.090 HD
ATOM     21  H   LIG d   1      -4.185  89.623 115.731  0.00  0.00    -0.090 HD
ENDBRANCH   5  18
BRANCH   3  22
ATOM     22  C   LIG d   1      -7.946  93.254 117.830  0.00  0.00     0.382 C 
ATOM     23  O   LIG d   1      -8.601  93.398 118.890  0.00  0.00    -0.241 OA
ATOM     24  O   LIG d   1      -8.415  93.677 116.756  0.00  0.00    -0.241 OA
ENDBRANCH   3  22
TORSDOF 7
ENDMDL
MODEL 3
REMARK VINA RESULT:      -5.2      2.551      5.152
REMARK  7 active torsions:
REMARK  status: ('A' for Active; 'I' for Inactive)
REMARK    1  A    between atoms: C_2  and  C_3 
REMARK    2  A    between atoms: C_3  and  O_6 
REMARK    3  A    between atoms: C_3  and  C_4 
REMARK    4  A    between atoms: C_7  and  O_6 
REMARK    5  A    between atoms: C_9  and  C_10 
REMARK    6  A    between atoms: N_15  and  C_14 
REMARK    7  A    between atoms: N_20  and  C_19 
REMARK       I    between atoms: C_22  and  N_20 
ROOT
ATOM      1  C   LIG d   1      -6.405  92.911 118.355  0.00  0.00     0.161 C 
ATOM      2  C   LIG d   1      -6.882  91.759 117.707  0.00  0.00     0.016 C 
ATOM      3  C   LIG d   1      -6.036  90.761 117.172  0.00  0.00     0.038 C 
ATOM      4  C   LIG d   1      -4.649  90.772 117.383  0.00  0.00     0.028 C 
ATOM      5  C   LIG d   1      -4.080  92.171 117.593  0.00  0.00    -0.047 C 
ATOM      6  C   LIG d   1      -4.899  92.886 118.692  0.00  0.00     0.091 C 
ENDROOT
BRANCH   1   7
ATOM      7  O   LIG d   1      -7.181  93.160 119.543  0.00  0.00    -0.368 OA
BRANCH   7   8
ATOM      8  C   LIG d   1      -8.309  94.057 119.392  0.00  0.00     0.119 C 
BRANCH   8   9
ATOM      9  C   LIG d   1      -7.885  95.431 119.945  0.00  0.00     0.028 C 
ATOM     10  C   LIG d   1      -7.463  96.406 118.833  0.00  0.00     0.006 C 
ENDBRANCH   8   9
BRANCH   8  11
ATOM     11  C   LIG d   1      -9.491  93.617 120.261  0.00  0.00     0.028 C 
ATOM     12  C   LIG d   1      -9.824  94.629 121.369  0.00  0.00     0.006 C 
ENDBRANCH   8  11
ENDBRANCH   7   8
ENDBRANCH   1   7
BRANCH   6  13
ATOM     13  N   LIG d   1      -4.462  94.291 118.902  0.00  0.00    -0.311 N 
ATOM     14  C   LIG d   1      -4.189  94.803 120.101  0.00  0.00     0.210 C 
ATOM     15  C   LIG d   1      -3.774  96.278 120.095  0.00  0.00     0.109 C 
ATOM     16  O   LIG d   1      -4.220  94.167 121.165  0.00  0.00    -0.276 OA
ATOM     17  H   LIG d   1      -4.380  94.869 118.088  0.00  0.00     0.149 HD
ENDBRANCH   6  13
BRANCH   5  18
ATOM     18  N   LIG d   1      -2.654  92.025 117.938  0.00  0.00     0.381 N 
ATOM     19  H   LIG d   1      -2.152  91.657 117.155  0.00  0.00    -0.090 HD
ATOM     20  H   LIG d   1      -2.568  91.376 118.701  0.00  0.00    -0.090 HD
ATOM     21  H   LIG d   1      -2.274  92.908 118.200  0.00  0.00    -0.090 HD
ENDBRANCH   5  18
BRANCH   3  22
ATOM     22  C   LIG d   1      -6.573  89.756 116.381  0.00  0.00     0.382 C 
ATOM     23  O   LIG d   1      -5.904  89.278 115.434  0.00  0.00    -0.241 OA
ATOM     24  O   LIG d   1      -7.736  89.353 116.576  0.00  0.00    -0.241 OA
ENDBRANCH   3  22
TORSDOF 7
ENDMDL
MODEL 4
REMARK VINA RESULT:      -5.2      2.640      4.471
REMARK  7 active torsions:
REMARK  status: ('A' for Active; 'I' for Inactive)
REMARK    1  A    between atoms: C_2  and  C_3 
REMARK    2  A    between atoms: C_3  and  O_6 
REMARK    3  A    between atoms: C_3  and  C_4 
REMARK    4  A    between atoms: C_7  and  O_6 
REMARK    5  A    between atoms: C_9  and  C_10 
REMARK    6  A    between atoms: N_15  and  C_14 
REMARK    7  A    between atoms: N_20  and  C_19 
REMARK       I    between atoms: C_22  and  N_20 
ROOT
ATOM      1  C   LIG d   1      -5.176  91.583 119.069  0.00  0.00     0.161 C 
ATOM      2  C   LIG d   1      -5.334  90.705 117.984  0.00  0.00     0.016 C 
ATOM      3  C   LIG d   1      -6.207  90.955 116.901  0.00  0.00     0.038 C 
ATOM      4  C   LIG d   1      -6.875  92.180 116.754  0.00  0.00     0.028 C 
ATOM      5  C   LIG d   1      -7.136  92.889 118.078  0.00  0.00    -0.047 C 
ATOM      6  C   LIG d   1      -5.812  92.975 118.872  0.00  0.00     0.091 C 
ENDROOT
BRANCH   1   7
ATOM      7  O   LIG d   1      -3.778  91.712 119.394  0.00  0.00    -0.368 OA
BRANCH   7   8
ATOM      8  C   LIG d   1      -2.864  91.751 118.270  0.00  0.00     0.119 C 
BRANCH   8   9
ATOM      9  C   LIG d   1      -1.627  90.914 118.651  0.00  0.00     0.028 C 
ATOM     10  C   LIG d   1      -1.988  89.461 119.002  0.00  0.00     0.006 C 
ENDBRANCH   8   9
BRANCH   8  11
ATOM     11  C   LIG d   1      -2.336  93.169 118.031  0.00  0.00     0.028 C 
ATOM     12  C   LIG d   1      -0.939  93.394 118.631  0.00  0.00     0.006 C 
ENDBRANCH   8  11
ENDBRANCH   7   8
ENDBRANCH   1   7
BRANCH   6  13
ATOM     13  N   LIG d   1      -5.995  93.580 120.216  0.00  0.00    -0.311 N 
ATOM     14  C   LIG d   1      -5.817  94.876 120.467  0.00  0.00     0.210 C 
ATOM     15  C   LIG d   1      -6.038  95.289 121.926  0.00  0.00     0.109 C 
ATOM     16  O   LIG d   1      -5.529  95.729 119.614  0.00  0.00    -0.276 OA
ATOM     17  H   LIG d   1      -6.260  92.966 120.961  0.00  0.00     0.149 HD
ENDBRANCH   6  13
BRANCH   5  18
ATOM     18  N   LIG d   1      -7.712  94.212 117.769  0.00  0.00     0.381 N 
ATOM     19  H   LIG d   1      -7.199  94.639 117.024  0.00  0.00    -0.090 HD
ATOM     20  H   LIG d   1      -7.633  94.798 118.582  0.00  0.00    -0.090 HD
ATOM     21  H   LIG d   1      -8.669  94.115 117.511  0.00  0.00    -0.090 HD
ENDBRANCH   5  18
BRANCH   3  22
ATOM     22  C   LIG d   1      -6.451  89.956 115.970  0.00  0.00     0.382 C 
ATOM     23  O   LIG d   1      -7.631  89.637 115.687  0.00  0.00    -0.241 OA
ATOM     24  O   LIG d   1      -5.506  89.340 115.443  0.00  0.00    -0.241 OA
ENDBRANCH   3  22
TORSDOF 7
ENDMDL
MODEL 5
REMARK VINA RESULT:      -4.7      2.454      4.113
REMARK  7 active torsions:
REMARK  status: ('A' for Active; 'I' for Inactive)
REMARK    1  A    between atoms: C_2  and  C_3 
REMARK    2  A    between atoms: C_3  and  O_6 
REMARK    3  A    between atoms: C_3  and  C_4 
REMARK    4  A    between atoms: C_7  and  O_6 
REMARK    5  A    between atoms: C_9  and  C_10 
REMARK    6  A    between atoms: N_15  and  C_14 
REMARK    7  A    between atoms: N_20  and  C_19 
REMARK       I    between atoms: C_22  and  N_20 
ROOT
ATOM      1  C   LIG d   1      -3.767  91.466 118.456  0.00  0.00     0.161 C 
ATOM      2  C   LIG d   1      -4.450  90.621 117.565  0.00  0.00     0.016 C 
ATOM      3  C   LIG d   1      -5.737  90.908 117.053  0.00  0.00     0.038 C 
ATOM      4  C   LIG d   1      -6.368  92.139 117.281  0.00  0.00     0.028 C 
ATOM      5  C   LIG d   1      -5.936  92.810 118.580  0.00  0.00    -0.047 C 
ATOM      6  C   LIG d   1      -4.392  92.866 118.628  0.00  0.00     0.091 C 
ENDROOT
BRANCH   1   7
ATOM      7  O   LIG d   1      -2.386  91.579 118.059  0.00  0.00    -0.368 OA
BRANCH   7   8
ATOM      8  C   LIG d   1      -1.412  91.019 118.974  0.00  0.00     0.119 C 
BRANCH   8   9
ATOM      9  C   LIG d   1      -0.177  91.940 118.956  0.00  0.00     0.028 C 
ATOM     10  C   LIG d   1       0.998  91.361 119.762  0.00  0.00     0.006 C 
ENDBRANCH   8   9
BRANCH   8  11
ATOM     11  C   LIG d   1      -0.909  89.657 118.486  0.00  0.00     0.028 C 
ATOM     12  C   LIG d   1      -0.885  89.544 116.954  0.00  0.00     0.006 C 
ENDBRANCH   8  11
ENDBRANCH   7   8
ENDBRANCH   1   7
BRANCH   6  13
ATOM     13  N   LIG d   1      -3.884  93.432 119.905  0.00  0.00    -0.311 N 
ATOM     14  C   LIG d   1      -3.546  94.711 120.056  0.00  0.00     0.210 C 
ATOM     15  C   LIG d   1      -3.026  95.081 121.449  0.00  0.00     0.109 C 
ATOM     16  O   LIG d   1      -3.657  95.581 119.179  0.00  0.00    -0.276 OA
ATOM     17  H   LIG d   1      -3.792  92.802 120.678  0.00  0.00     0.149 HD
ENDBRANCH   6  13
BRANCH   5  18
ATOM     18  N   LIG d   1      -6.565  94.144 118.623  0.00  0.00     0.381 N 
ATOM     19  H   LIG d   1      -7.560  94.049 118.665  0.00  0.00    -0.090 HD
ATOM     20  H   LIG d   1      -6.330  94.641 117.782  0.00  0.00    -0.090 HD
ATOM     21  H   LIG d   1      -6.239  94.649 119.418  0.00  0.00    -0.090 HD
ENDBRANCH   5  18
BRANCH   3  22
ATOM     22  C   LIG d   1      -6.422  89.939 116.336  0.00  0.00     0.382 C 
ATOM     23  O   LIG d   1      -5.838  89.298 115.430  0.00  0.00    -0.241 OA
ATOM     24  O   LIG d   1      -7.631  89.728 116.555  0.00  0.00    -0.241 OA
ENDBRANCH   3  22
TORSDOF 7
ENDMDL
MODEL 6
REMARK VINA RESULT:      -4.6      2.435      4.992
REMARK  7 active torsions:
REMARK  status: ('A' for Active; 'I' for Inactive)
REMARK    1  A    between atoms: C_2  and  C_3 
REMARK    2  A    between atoms: C_3  and  O_6 
REMARK    3  A    between atoms: C_3  and  C_4 
REMARK    4  A    between atoms: C_7  and  O_6 
REMARK    5  A    between atoms: C_9  and  C_10 
REMARK    6  A    between atoms: N_15  and  C_14 
REMARK    7  A    between atoms: N_20  and  C_19 
REMARK       I    between atoms: C_22  and  N_20 
ROOT
ATOM      1  C   LIG d   1      -5.618  92.423 119.523  0.00  0.00     0.161 C 
ATOM      2  C   LIG d   1      -5.004  91.489 118.673  0.00  0.00     0.016 C 
ATOM      3  C   LIG d   1      -5.409  91.269 117.337  0.00  0.00     0.038 C 
ATOM      4  C   LIG d   1      -6.365  92.081 116.708  0.00  0.00     0.028 C 
ATOM      5  C   LIG d   1      -7.364  92.702 117.678  0.00  0.00    -0.047 C 
ATOM      6  C   LIG d   1      -6.589  93.396 118.821  0.00  0.00     0.091 C 
ENDROOT
BRANCH   1   7
ATOM      7  O   LIG d   1      -4.613  93.156 120.251  0.00  0.00    -0.368 OA
BRANCH   7   8
ATOM      8  C   LIG d   1      -3.251  92.686 120.105  0.00  0.00     0.119 C 
BRANCH   8   9
ATOM      9  C   LIG d   1      -2.730  92.332 121.512  0.00  0.00     0.028 C 
ATOM     10  C   LIG d   1      -3.329  91.021 122.047  0.00  0.00     0.006 C 
ENDBRANCH   8   9
BRANCH   8  11
ATOM     11  C   LIG d   1      -2.328  93.799 119.599  0.00  0.00     0.028 C 
ATOM     12  C   LIG d   1      -2.217  93.830 118.067  0.00  0.00     0.006 C 
ENDBRANCH   8  11
ENDBRANCH   7   8
ENDBRANCH   1   7
BRANCH   6  13
ATOM     13  N   LIG d   1      -7.492  93.958 119.859  0.00  0.00    -0.311 N 
ATOM     14  C   LIG d   1      -8.034  95.172 119.781  0.00  0.00     0.210 C 
ATOM     15  C   LIG d   1      -8.919  95.563 120.968  0.00  0.00     0.109 C 
ATOM     16  O   LIG d   1      -7.891  95.949 118.825  0.00  0.00    -0.276 OA
ATOM     17  H   LIG d   1      -7.686  93.382 120.655  0.00  0.00     0.149 HD
ENDBRANCH   6  13
BRANCH   5  18
ATOM     18  N   LIG d   1      -8.214  93.630 116.909  0.00  0.00     0.381 N 
ATOM     19  H   LIG d   1      -8.654  94.280 117.530  0.00  0.00    -0.090 HD
ATOM     20  H   LIG d   1      -8.932  93.104 116.444  0.00  0.00    -0.090 HD
ATOM     21  H   LIG d   1      -7.664  94.121 116.239  0.00  0.00    -0.090 HD
ENDBRANCH   5  18
BRANCH   3  22
ATOM     22  C   LIG d   1      -4.884  90.199 116.627  0.00  0.00     0.382 C 
ATOM     23  O   LIG d   1      -5.400  89.859 115.535  0.00  0.00    -0.241 OA
ATOM     24  O   LIG d   1      -3.930  89.544 117.086  0.00  0.00    -0.241 OA
ENDBRANCH   3  22
TORSDOF 7
ENDMDL
MODEL 7
REMARK VINA RESULT:      -4.6      2.058      2.840
REMARK  7 active torsions:
REMARK  status: ('A' for Active; 'I' for Inactive)
REMARK    1  A    between atoms: C_2  and  C_3 
REMARK    2  A    between atoms: C_3  and  O_6 
REMARK    3  A    between atoms: C_3  and  C_4 
REMARK    4  A    between atoms: C_7  and  O_6 
REMARK    5  A    between atoms: C_9  and  C_10 
REMARK    6  A    between atoms: N_15  and  C_14 
REMARK    7  A    between atoms: N_20  and  C_19 
REMARK       I    between atoms: C_22  and  N_20 
ROOT
ATOM      1  C   LIG d   1      -3.360  92.656 118.004  0.00  0.00     0.161 C 
ATOM      2  C   LIG d   1      -4.730  92.372 117.874  0.00  0.00     0.016 C 
ATOM      3  C   LIG d   1      -5.231  91.092 117.540  0.00  0.00     0.038 C 
ATOM      4  C   LIG d   1      -4.397  89.967 117.462  0.00  0.00     0.028 C 
ATOM      5  C   LIG d   1      -2.958  90.304 117.089  0.00  0.00    -0.047 C 
ATOM      6  C   LIG d   1      -2.442  91.416 118.031  0.00  0.00     0.091 C 
ENDROOT
BRANCH   1   7
ATOM      7  O   LIG d   1      -3.138  93.469 119.173  0.00  0.00    -0.368 OA
BRANCH   7   8
ATOM      8  C   LIG d   1      -2.802  92.758 120.390  0.00  0.00     0.119 C 
BRANCH   8   9
ATOM      9  C   LIG d   1      -3.989  92.914 121.360  0.00  0.00     0.028 C 
ATOM     10  C   LIG d   1      -4.777  91.605 121.539  0.00  0.00     0.006 C 
ENDBRANCH   8   9
BRANCH   8  11
ATOM     11  C   LIG d   1      -1.609  93.403 121.101  0.00  0.00     0.028 C 
ATOM     12  C   LIG d   1      -0.884  94.439 120.227  0.00  0.00     0.006 C 
ENDBRANCH   8  11
ENDBRANCH   7   8
ENDBRANCH   1   7
BRANCH   6  13
ATOM     13  N   LIG d   1      -1.069  91.864 117.680  0.00  0.00    -0.311 N 
ATOM     14  C   LIG d   1       0.028  91.395 118.271  0.00  0.00     0.210 C 
ATOM     15  C   LIG d   1       1.342  92.007 117.773  0.00  0.00     0.109 C 
ATOM     16  O   LIG d   1       0.041  90.507 119.137  0.00  0.00    -0.276 OA
ATOM     17  H   LIG d   1      -0.986  92.561 116.966  0.00  0.00     0.149 HD
ENDBRANCH   6  13
BRANCH   5  18
ATOM     18  N   LIG d   1      -2.171  89.060 117.178  0.00  0.00     0.381 N 
ATOM     19  H   LIG d   1      -2.785  88.270 117.179  0.00  0.00    -0.090 HD
ATOM     20  H   LIG d   1      -1.657  89.061 118.041  0.00  0.00    -0.090 HD
ATOM     21  H   LIG d   1      -1.541  88.998 116.408  0.00  0.00    -0.090 HD
ENDBRANCH   5  18
BRANCH   3  22
ATOM     22  C   LIG d   1      -6.576  90.938 117.242  0.00  0.00     0.382 C 
ATOM     23  O   LIG d   1      -7.366  91.900 117.393  0.00  0.00    -0.241 OA
ATOM     24  O   LIG d   1      -7.017  89.835 116.867  0.00  0.00    -0.241 OA
ENDBRANCH   3  22
TORSDOF 7
ENDMDL
MODEL 8
REMARK VINA RESULT:      -4.6      2.172      2.832
REMARK  7 active torsions:
REMARK  status: ('A' for Active; 'I' for Inactive)
REMARK    1  A    between atoms: C_2  and  C_3 
REMARK    2  A    between atoms: C_3  and  O_6 
REMARK    3  A    between atoms: C_3  and  C_4 
REMARK    4  A    between atoms: C_7  and  O_6 
REMARK    5  A    between atoms: C_9  and  C_10 
REMARK    6  A    between atoms: N_15  and  C_14 
REMARK    7  A    between atoms: N_20  and  C_19 
REMARK       I    between atoms: C_22  and  N_20 
ROOT
ATOM      1  C   LIG d   1      -3.395  92.657 118.029  0.00  0.00     0.161 C 
ATOM      2  C   LIG d   1      -4.756  92.343 117.882  0.00  0.00     0.016 C 
ATOM      3  C   LIG d   1      -5.225  91.054 117.537  0.00  0.00     0.038 C 
ATOM      4  C   LIG d   1      -4.366  89.948 117.464  0.00  0.00     0.028 C 
ATOM      5  C   LIG d   1      -2.930  90.319 117.108  0.00  0.00    -0.047 C 
ATOM      6  C   LIG d   1      -2.450  91.437 118.061  0.00  0.00     0.091 C 
ENDROOT
BRANCH   1   7
ATOM      7  O   LIG d   1      -3.205  93.469 119.204  0.00  0.00    -0.368 OA
BRANCH   7   8
ATOM      8  C   LIG d   1      -4.251  93.400 120.203  0.00  0.00     0.119 C 
BRANCH   8   9
ATOM      9  C   LIG d   1      -4.586  94.844 120.624  0.00  0.00     0.028 C 
ATOM     10  C   LIG d   1      -5.879  95.361 119.971  0.00  0.00     0.006 C 
ENDBRANCH   8   9
BRANCH   8  11
ATOM     11  C   LIG d   1      -3.759  92.709 121.479  0.00  0.00     0.028 C 
ATOM     12  C   LIG d   1      -4.026  91.196 121.478  0.00  0.00     0.006 C 
ENDBRANCH   8  11
ENDBRANCH   7   8
ENDBRANCH   1   7
BRANCH   6  13
ATOM     13  N   LIG d   1      -1.083  91.918 117.728  0.00  0.00    -0.311 N 
ATOM     14  C   LIG d   1       0.021  91.440 118.299  0.00  0.00     0.210 C 
ATOM     15  C   LIG d   1       1.326  92.089 117.826  0.00  0.00     0.109 C 
ATOM     16  O   LIG d   1       0.047  90.518 119.128  0.00  0.00    -0.276 OA
ATOM     17  H   LIG d   1      -1.010  92.643 117.042  0.00  0.00     0.149 HD
ENDBRANCH   6  13
BRANCH   5  18
ATOM     18  N   LIG d   1      -2.116  89.092 117.201  0.00  0.00     0.381 N 
ATOM     19  H   LIG d   1      -2.713  88.289 117.192  0.00  0.00    -0.090 HD
ATOM     20  H   LIG d   1      -1.612  89.101 118.070  0.00  0.00    -0.090 HD
ATOM     21  H   LIG d   1      -1.477  89.048 116.438  0.00  0.00    -0.090 HD
ENDBRANCH   5  18
BRANCH   3  22
ATOM     22  C   LIG d   1      -6.563  90.871 117.223  0.00  0.00     0.382 C 
ATOM     23  O   LIG d   1      -6.956  89.767 116.775  0.00  0.00    -0.241 OA
ATOM     24  O   LIG d   1      -7.374  91.810 117.340  0.00  0.00    -0.241 OA
ENDBRANCH   3  22
TORSDOF 7
ENDMDL
MODEL 9
REMARK VINA RESULT:      -4.6      1.924      2.652
REMARK  7 active torsions:
REMARK  status: ('A' for Active; 'I' for Inactive)
REMARK    1  A    between atoms: C_2  and  C_3 
REMARK    2  A    between atoms: C_3  and  O_6 
REMARK    3  A    between atoms: C_3  and  C_4 
REMARK    4  A    between atoms: C_7  and  O_6 
REMARK    5  A    between atoms: C_9  and  C_10 
REMARK    6  A    between atoms: N_15  and  C_14 
REMARK    7  A    between atoms: N_20  and  C_19 
REMARK       I    between atoms: C_22  and  N_20 
ROOT
ATOM      1  C   LIG d   1      -3.349  92.650 118.129  0.00  0.00     0.161 C 
ATOM      2  C   LIG d   1      -4.742  92.499 118.031  0.00  0.00     0.016 C 
ATOM      3  C   LIG d   1      -5.369  91.295 117.634  0.00  0.00     0.038 C 
ATOM      4  C   LIG d   1      -4.644  90.108 117.453  0.00  0.00     0.028 C 
ATOM      5  C   LIG d   1      -3.192  90.339 117.050  0.00  0.00    -0.047 C 
ATOM      6  C   LIG d   1      -2.548  91.334 118.043  0.00  0.00     0.091 C 
ENDROOT
BRANCH   1   7
ATOM      7  O   LIG d   1      -3.019  93.359 119.340  0.00  0.00    -0.368 OA
BRANCH   7   8
ATOM      8  C   LIG d   1      -2.380  94.649 119.169  0.00  0.00     0.119 C 
BRANCH   8   9
ATOM      9  C   LIG d   1      -1.378  94.826 120.326  0.00  0.00     0.028 C 
ATOM     10  C   LIG d   1      -0.005  94.209 120.014  0.00  0.00     0.006 C 
ENDBRANCH   8   9
BRANCH   8  11
ATOM     11  C   LIG d   1      -3.385  95.793 119.323  0.00  0.00     0.028 C 
ATOM     12  C   LIG d   1      -4.489  95.483 120.347  0.00  0.00     0.006 C 
ENDBRANCH   8  11
ENDBRANCH   7   8
ENDBRANCH   1   7
BRANCH   6  13
ATOM     13  N   LIG d   1      -1.152  91.681 117.672  0.00  0.00    -0.311 N 
ATOM     14  C   LIG d   1      -0.088  91.019 118.124  0.00  0.00     0.210 C 
ATOM     15  C   LIG d   1       1.262  91.553 117.634  0.00  0.00     0.109 C 
ATOM     16  O   LIG d   1      -0.135  90.020 118.857  0.00  0.00    -0.276 OA
ATOM     17  H   LIG d   1      -1.023  92.459 117.056  0.00  0.00     0.149 HD
ENDBRANCH   6  13
BRANCH   5  18
ATOM     18  N   LIG d   1      -2.520  89.026 117.030  0.00  0.00     0.381 N 
ATOM     19  H   LIG d   1      -3.027  88.395 116.442  0.00  0.00    -0.090 HD
ATOM     20  H   LIG d   1      -2.512  88.651 117.962  0.00  0.00    -0.090 HD
ATOM     21  H   LIG d   1      -1.587  89.126 116.696  0.00  0.00    -0.090 HD
ENDBRANCH   5  18
BRANCH   3  22
ATOM     22  C   LIG d   1      -6.731  91.282 117.376  0.00  0.00     0.382 C 
ATOM     23  O   LIG d   1      -7.428  92.292 117.636  0.00  0.00    -0.241 OA
ATOM     24  O   LIG d   1      -7.279  90.258 116.926  0.00  0.00    -0.241 OA
ENDBRANCH   3  22
TORSDOF 7
ENDMDL
