MODEL 1
REMARK VINA RESULT:      -5.0      0.000      0.000
REMARK  7 active torsions:
REMARK  status: ('A' for Active; 'I' for Inactive)
REMARK    1  A    between atoms: C_2  and  C_3 
REMARK    2  A    between atoms: C_3  and  O_6 
REMARK    3  A    between atoms: C_3  and  C_4 
REMARK    4  A    between atoms: C_7  and  O_6 
REMARK    5  A    between atoms: C_9  and  C_10 
REMARK    6  A    between atoms: N_15  and  C_14 
REMARK    7  A    between atoms: N_20  and  C_19 
REMARK       I    between atoms: C_22  and  N_20 
ROOT
ATOM      1  C   LIG d   1      -5.662  91.877 118.802  0.00  0.00     0.161 C 
ATOM      2  C   LIG d   1      -6.941  92.437 118.952  0.00  0.00     0.016 C 
ATOM      3  C   LIG d   1      -7.163  93.801 119.252  0.00  0.00     0.038 C 
ATOM      4  C   LIG d   1      -6.117  94.735 119.272  0.00  0.00     0.028 C 
ATOM      5  C   LIG d   1      -4.766  94.124 119.626  0.00  0.00    -0.047 C 
ATOM      6  C   LIG d   1      -4.513  92.903 118.712  0.00  0.00     0.091 C 
ENDROOT
BRANCH   1   7
ATOM      7  O   LIG d   1      -5.643  91.001 117.658  0.00  0.00    -0.368 OA
BRANCH   7   8
ATOM      8  C   LIG d   1      -5.237  91.601 116.403  0.00  0.00     0.119 C 
BRANCH   8   9
ATOM      9  C   LIG d   1      -6.481  91.661 115.495  0.00  0.00     0.028 C 
ATOM     10  C   LIG d   1      -7.293  90.355 115.525  0.00  0.00     0.006 C 
ENDBRANCH   8   9
BRANCH   8  11
ATOM     11  C   LIG d   1      -4.235  90.714 115.659  0.00  0.00     0.028 C 
ATOM     12  C   LIG d   1      -3.686  89.574 116.532  0.00  0.00     0.006 C 
ENDBRANCH   8  11
ENDBRANCH   7   8
ENDBRANCH   1   7
BRANCH   6  13
ATOM     13  N   LIG d   1      -3.250  92.195 119.047  0.00  0.00    -0.311 N 
ATOM     14  C   LIG d   1      -2.105  92.391 118.396  0.00  0.00     0.210 C 
ATOM     15  C   LIG d   1      -0.927  91.545 118.891  0.00  0.00     0.109 C 
ATOM     16  O   LIG d   1      -1.944  93.209 117.478  0.00  0.00    -0.276 OA
ATOM     17  H   LIG d   1      -3.283  91.537 119.801  0.00  0.00     0.149 HD
ENDBRANCH   6  13
BRANCH   5  18
ATOM     18  N   LIG d   1      -3.746  95.179 119.476  0.00  0.00     0.381 N 
ATOM     19  H   LIG d   1      -3.333  95.125 118.566  0.00  0.00    -0.090 HD
ATOM     20  H   LIG d   1      -3.024  95.033 120.159  0.00  0.00    -0.090 HD
ATOM     21  H   LIG d   1      -4.161  96.075 119.607  0.00  0.00    -0.090 HD
ENDBRANCH   5  18
BRANCH   3  22
ATOM     22  C   LIG d   1      -8.440  94.235 119.574  0.00  0.00     0.382 C 
ATOM     23  O   LIG d   1      -8.596  95.290 120.234  0.00  0.00    -0.241 OA
ATOM     24  O   LIG d   1      -9.437  93.561 119.251  0.00  0.00    -0.241 OA
ENDBRANCH   3  22
TORSDOF 7
ENDMDL
MODEL 2
REMARK VINA RESULT:      -4.9      2.267      5.857
REMARK  7 active torsions:
REMARK  status: ('A' for Active; 'I' for Inactive)
REMARK    1  A    between atoms: C_2  and  C_3 
REMARK    2  A    between atoms: C_3  and  O_6 
REMARK    3  A    between atoms: C_3  and  C_4 
REMARK    4  A    between atoms: C_7  and  O_6 
REMARK    5  A    between atoms: C_9  and  C_10 
REMARK    6  A    between atoms: N_15  and  C_14 
REMARK    7  A    between atoms: N_20  and  C_19 
REMARK       I    between atoms: C_22  and  N_20 
ROOT
ATOM      1  C   LIG d   1      -5.461  91.612 119.130  0.00  0.00     0.161 C 
ATOM      2  C   LIG d   1      -4.554  90.815 118.412  0.00  0.00     0.016 C 
ATOM      3  C   LIG d   1      -4.633  90.613 117.015  0.00  0.00     0.038 C 
ATOM      4  C   LIG d   1      -5.540  91.321 116.213  0.00  0.00     0.028 C 
ATOM      5  C   LIG d   1      -6.800  91.750 116.958  0.00  0.00    -0.047 C 
ATOM      6  C   LIG d   1      -6.390  92.481 118.257  0.00  0.00     0.091 C 
ENDROOT
BRANCH   1   7
ATOM      7  O   LIG d   1      -4.747  92.435 120.074  0.00  0.00    -0.368 OA
BRANCH   7   8
ATOM      8  C   LIG d   1      -4.257  93.703 119.572  0.00  0.00     0.119 C 
BRANCH   8   9
ATOM      9  C   LIG d   1      -2.723  93.700 119.723  0.00  0.00     0.028 C 
ATOM     10  C   LIG d   1      -2.002  93.461 118.385  0.00  0.00     0.006 C 
ENDBRANCH   8   9
BRANCH   8  11
ATOM     11  C   LIG d   1      -4.747  94.870 120.433  0.00  0.00     0.028 C 
ATOM     12  C   LIG d   1      -4.914  96.172 119.634  0.00  0.00     0.006 C 
ENDBRANCH   8  11
ENDBRANCH   7   8
ENDBRANCH   1   7
BRANCH   6  13
ATOM     13  N   LIG d   1      -7.563  92.861 119.088  0.00  0.00    -0.311 N 
ATOM     14  C   LIG d   1      -8.178  94.038 118.993  0.00  0.00     0.210 C 
ATOM     15  C   LIG d   1      -9.353  94.233 119.956  0.00  0.00     0.109 C 
ATOM     16  O   LIG d   1      -7.883  94.927 118.180  0.00  0.00    -0.276 OA
ATOM     17  H   LIG d   1      -7.888  92.186 119.752  0.00  0.00     0.149 HD
ENDBRANCH   6  13
BRANCH   5  18
ATOM     18  N   LIG d   1      -7.593  92.594 116.044  0.00  0.00     0.381 N 
ATOM     19  H   LIG d   1      -8.106  92.017 115.409  0.00  0.00    -0.090 HD
ATOM     20  H   LIG d   1      -6.967  93.171 115.510  0.00  0.00    -0.090 HD
ATOM     21  H   LIG d   1      -8.220  93.166 116.566  0.00  0.00    -0.090 HD
ENDBRANCH   5  18
BRANCH   3  22
ATOM     22  C   LIG d   1      -3.823  89.663 116.411  0.00  0.00     0.382 C 
ATOM     23  O   LIG d   1      -4.249  89.007 115.430  0.00  0.00    -0.241 OA
ATOM     24  O   LIG d   1      -2.687  89.423 116.862  0.00  0.00    -0.241 OA
ENDBRANCH   3  22
TORSDOF 7
ENDMDL
MODEL 3
REMARK VINA RESULT:      -4.7      2.244      4.715
REMARK  7 active torsions:
REMARK  status: ('A' for Active; 'I' for Inactive)
REMARK    1  A    between atoms: C_2  and  C_3 
REMARK    2  A    between atoms: C_3  and  O_6 
REMARK    3  A    between atoms: C_3  and  C_4 
REMARK    4  A    between atoms: C_7  and  O_6 
REMARK    5  A    between atoms: C_9  and  C_10 
REMARK    6  A    between atoms: N_15  and  C_14 
REMARK    7  A    between atoms: N_20  and  C_19 
REMARK       I    between atoms: C_22  and  N_20 
ROOT
ATOM      1  C   LIG d   1      -5.241  92.038 119.182  0.00  0.00     0.161 C 
ATOM      2  C   LIG d   1      -5.394  91.106 118.141  0.00  0.00     0.016 C 
ATOM      3  C   LIG d   1      -6.257  91.306 117.039  0.00  0.00     0.038 C 
ATOM      4  C   LIG d   1      -6.916  92.525 116.825  0.00  0.00     0.028 C 
ATOM      5  C   LIG d   1      -7.185  93.303 118.109  0.00  0.00    -0.047 C 
ATOM      6  C   LIG d   1      -5.867  93.421 118.909  0.00  0.00     0.091 C 
ENDROOT
BRANCH   1   7
ATOM      7  O   LIG d   1      -3.844  92.176 119.512  0.00  0.00    -0.368 OA
BRANCH   7   8
ATOM      8  C   LIG d   1      -3.051  92.979 118.603  0.00  0.00     0.119 C 
BRANCH   8   9
ATOM      9  C   LIG d   1      -1.896  92.095 118.092  0.00  0.00     0.028 C 
ATOM     10  C   LIG d   1      -2.121  91.611 116.650  0.00  0.00     0.006 C 
ENDBRANCH   8   9
BRANCH   8  11
ATOM     11  C   LIG d   1      -2.378  94.145 119.332  0.00  0.00     0.028 C 
ATOM     12  C   LIG d   1      -1.212  94.752 118.536  0.00  0.00     0.006 C 
ENDBRANCH   8  11
ENDBRANCH   7   8
ENDBRANCH   1   7
BRANCH   6  13
ATOM     13  N   LIG d   1      -6.058  94.095 120.219  0.00  0.00    -0.311 N 
ATOM     14  C   LIG d   1      -5.842  95.395 120.413  0.00  0.00     0.210 C 
ATOM     15  C   LIG d   1      -6.079  95.883 121.846  0.00  0.00     0.109 C 
ATOM     16  O   LIG d   1      -5.507  96.197 119.528  0.00  0.00    -0.276 OA
ATOM     17  H   LIG d   1      -6.358  93.526 120.986  0.00  0.00     0.149 HD
ENDBRANCH   6  13
BRANCH   5  18
ATOM     18  N   LIG d   1      -7.749  94.611 117.728  0.00  0.00     0.381 N 
ATOM     19  H   LIG d   1      -7.561  94.793 116.763  0.00  0.00    -0.090 HD
ATOM     20  H   LIG d   1      -7.307  95.328 118.276  0.00  0.00    -0.090 HD
ATOM     21  H   LIG d   1      -8.733  94.618 117.890  0.00  0.00    -0.090 HD
ENDBRANCH   5  18
BRANCH   3  22
ATOM     22  C   LIG d   1      -6.499  90.263 116.158  0.00  0.00     0.382 C 
ATOM     23  O   LIG d   1      -7.678  89.949 115.867  0.00  0.00    -0.241 OA
ATOM     24  O   LIG d   1      -5.554  89.602 115.686  0.00  0.00    -0.241 OA
ENDBRANCH   3  22
TORSDOF 7
ENDMDL
MODEL 4
REMARK VINA RESULT:      -4.4      2.186      4.634
REMARK  7 active torsions:
REMARK  status: ('A' for Active; 'I' for Inactive)
REMARK    1  A    between atoms: C_2  and  C_3 
REMARK    2  A    between atoms: C_3  and  O_6 
REMARK    3  A    between atoms: C_3  and  C_4 
REMARK    4  A    between atoms: C_7  and  O_6 
REMARK    5  A    between atoms: C_9  and  C_10 
REMARK    6  A    between atoms: N_15  and  C_14 
REMARK    7  A    between atoms: N_20  and  C_19 
REMARK       I    between atoms: C_22  and  N_20 
ROOT
ATOM      1  C   LIG d   1      -4.351  92.563 118.901  0.00  0.00     0.161 C 
ATOM      2  C   LIG d   1      -5.484  91.991 118.298  0.00  0.00     0.016 C 
ATOM      3  C   LIG d   1      -5.434  91.252 117.093  0.00  0.00     0.038 C 
ATOM      4  C   LIG d   1      -4.218  90.905 116.486  0.00  0.00     0.028 C 
ATOM      5  C   LIG d   1      -3.090  91.887 116.784  0.00  0.00    -0.047 C 
ATOM      6  C   LIG d   1      -3.002  92.101 118.312  0.00  0.00     0.091 C 
ENDROOT
BRANCH   1   7
ATOM      7  O   LIG d   1      -4.384  92.329 120.323  0.00  0.00    -0.368 OA
BRANCH   7   8
ATOM      8  C   LIG d   1      -4.672  93.481 121.152  0.00  0.00     0.119 C 
BRANCH   8   9
ATOM      9  C   LIG d   1      -6.110  93.323 121.682  0.00  0.00     0.028 C 
ATOM     10  C   LIG d   1      -7.056  94.410 121.144  0.00  0.00     0.006 C 
ENDBRANCH   8   9
BRANCH   8  11
ATOM     11  C   LIG d   1      -4.683  94.772 120.328  0.00  0.00     0.028 C 
ATOM     12  C   LIG d   1      -3.546  95.733 120.710  0.00  0.00     0.006 C 
ENDBRANCH   8  11
ENDBRANCH   7   8
ENDBRANCH   1   7
BRANCH   6  13
ATOM     13  N   LIG d   1      -1.979  93.112 118.685  0.00  0.00    -0.311 N 
ATOM     14  C   LIG d   1      -1.051  92.906 119.618  0.00  0.00     0.210 C 
ATOM     15  C   LIG d   1      -0.105  94.087 119.861  0.00  0.00     0.109 C 
ATOM     16  O   LIG d   1      -0.900  91.847 120.244  0.00  0.00    -0.276 OA
ATOM     17  H   LIG d   1      -2.008  93.989 118.204  0.00  0.00     0.149 HD
ENDBRANCH   6  13
BRANCH   5  18
ATOM     18  N   LIG d   1      -1.852  91.332 116.205  0.00  0.00     0.381 N 
ATOM     19  H   LIG d   1      -1.501  90.602 116.793  0.00  0.00    -0.090 HD
ATOM     20  H   LIG d   1      -1.161  92.060 116.159  0.00  0.00    -0.090 HD
ATOM     21  H   LIG d   1      -2.032  90.976 115.293  0.00  0.00    -0.090 HD
ENDBRANCH   5  18
BRANCH   3  22
ATOM     22  C   LIG d   1      -6.614  90.886 116.462  0.00  0.00     0.382 C 
ATOM     23  O   LIG d   1      -6.822  89.684 116.172  0.00  0.00    -0.241 OA
ATOM     24  O   LIG d   1      -7.452  91.750 116.140  0.00  0.00    -0.241 OA
ENDBRANCH   3  22
TORSDOF 7
ENDMDL
MODEL 5
REMARK VINA RESULT:      -4.4      2.178      4.721
REMARK  7 active torsions:
REMARK  status: ('A' for Active; 'I' for Inactive)
REMARK    1  A    between atoms: C_2  and  C_3 
REMARK    2  A    between atoms: C_3  and  O_6 
REMARK    3  A    between atoms: C_3  and  C_4 
REMARK    4  A    between atoms: C_7  and  O_6 
REMARK    5  A    between atoms: C_9  and  C_10 
REMARK    6  A    between atoms: N_15  and  C_14 
REMARK    7  A    between atoms: N_20  and  C_19 
REMARK       I    between atoms: C_22  and  N_20 
ROOT
ATOM      1  C   LIG d   1      -4.912  92.696 118.530  0.00  0.00     0.161 C 
ATOM      2  C   LIG d   1      -6.003  92.000 117.984  0.00  0.00     0.016 C 
ATOM      3  C   LIG d   1      -5.887  91.096 116.903  0.00  0.00     0.038 C 
ATOM      4  C   LIG d   1      -4.640  90.711 116.388  0.00  0.00     0.028 C 
ATOM      5  C   LIG d   1      -3.557  91.768 116.572  0.00  0.00    -0.047 C 
ATOM      6  C   LIG d   1      -3.528  92.205 118.055  0.00  0.00     0.091 C 
ENDROOT
BRANCH   1   7
ATOM      7  O   LIG d   1      -4.986  92.670 119.969  0.00  0.00    -0.368 OA
BRANCH   7   8
ATOM      8  C   LIG d   1      -5.717  93.756 120.590  0.00  0.00     0.119 C 
BRANCH   8   9
ATOM      9  C   LIG d   1      -4.928  95.053 120.331  0.00  0.00     0.028 C 
ATOM     10  C   LIG d   1      -5.774  96.124 119.622  0.00  0.00     0.006 C 
ENDBRANCH   8   9
BRANCH   8  11
ATOM     11  C   LIG d   1      -5.757  93.602 122.113  0.00  0.00     0.028 C 
ATOM     12  C   LIG d   1      -7.175  93.739 122.689  0.00  0.00     0.006 C 
ENDBRANCH   8  11
ENDBRANCH   7   8
ENDBRANCH   1   7
BRANCH   6  13
ATOM     13  N   LIG d   1      -2.553  93.298 118.305  0.00  0.00    -0.311 N 
ATOM     14  C   LIG d   1      -1.611  93.239 119.245  0.00  0.00     0.210 C 
ATOM     15  C   LIG d   1      -0.722  94.483 119.349  0.00  0.00     0.109 C 
ATOM     16  O   LIG d   1      -1.407  92.262 119.981  0.00  0.00    -0.276 OA
ATOM     17  H   LIG d   1      -2.627  94.116 117.732  0.00  0.00     0.149 HD
ENDBRANCH   6  13
BRANCH   5  18
ATOM     18  N   LIG d   1      -2.281  91.183 116.117  0.00  0.00     0.381 N 
ATOM     19  H   LIG d   1      -1.518  91.631 116.583  0.00  0.00    -0.090 HD
ATOM     20  H   LIG d   1      -2.185  91.341 115.130  0.00  0.00    -0.090 HD
ATOM     21  H   LIG d   1      -2.268  90.205 116.308  0.00  0.00    -0.090 HD
ENDBRANCH   5  18
BRANCH   3  22
ATOM     22  C   LIG d   1      -7.031  90.598 116.298  0.00  0.00     0.382 C 
ATOM     23  O   LIG d   1      -7.629  91.279 115.430  0.00  0.00    -0.241 OA
ATOM     24  O   LIG d   1      -7.498  89.496 116.641  0.00  0.00    -0.241 OA
ENDBRANCH   3  22
TORSDOF 7
ENDMDL
MODEL 6
REMARK VINA RESULT:      -4.3      2.477      4.395
REMARK  7 active torsions:
REMARK  status: ('A' for Active; 'I' for Inactive)
REMARK    1  A    between atoms: C_2  and  C_3 
REMARK    2  A    between atoms: C_3  and  O_6 
REMARK    3  A    between atoms: C_3  and  C_4 
REMARK    4  A    between atoms: C_7  and  O_6 
REMARK    5  A    between atoms: C_9  and  C_10 
REMARK    6  A    between atoms: N_15  and  C_14 
REMARK    7  A    between atoms: N_20  and  C_19 
REMARK       I    between atoms: C_22  and  N_20 
ROOT
ATOM      1  C   LIG d   1      -4.452  92.049 118.556  0.00  0.00     0.161 C 
ATOM      2  C   LIG d   1      -5.568  92.900 118.507  0.00  0.00     0.016 C 
ATOM      3  C   LIG d   1      -6.576  92.805 117.520  0.00  0.00     0.038 C 
ATOM      4  C   LIG d   1      -6.614  91.747 116.599  0.00  0.00     0.028 C 
ATOM      5  C   LIG d   1      -5.241  91.159 116.294  0.00  0.00    -0.047 C 
ATOM      6  C   LIG d   1      -4.534  90.820 117.627  0.00  0.00     0.091 C 
ENDROOT
BRANCH   1   7
ATOM      7  O   LIG d   1      -4.214  91.633 119.916  0.00  0.00    -0.368 OA
BRANCH   7   8
ATOM      8  C   LIG d   1      -3.344  92.486 120.700  0.00  0.00     0.119 C 
BRANCH   8   9
ATOM      9  C   LIG d   1      -2.147  92.871 119.809  0.00  0.00     0.028 C 
ATOM     10  C   LIG d   1      -1.397  94.106 120.334  0.00  0.00     0.006 C 
ENDBRANCH   8   9
BRANCH   8  11
ATOM     11  C   LIG d   1      -2.739  91.726 121.884  0.00  0.00     0.028 C 
ATOM     12  C   LIG d   1      -1.976  90.463 121.455  0.00  0.00     0.006 C 
ENDBRANCH   8  11
ENDBRANCH   7   8
ENDBRANCH   1   7
BRANCH   6  13
ATOM     13  N   LIG d   1      -3.150  90.318 117.422  0.00  0.00    -0.311 N 
ATOM     14  C   LIG d   1      -2.659  89.247 118.044  0.00  0.00     0.210 C 
ATOM     15  C   LIG d   1      -1.203  88.913 117.705  0.00  0.00     0.109 C 
ATOM     16  O   LIG d   1      -3.302  88.523 118.820  0.00  0.00    -0.276 OA
ATOM     17  H   LIG d   1      -2.569  90.827 116.785  0.00  0.00     0.149 HD
ENDBRANCH   6  13
BRANCH   5  18
ATOM     18  N   LIG d   1      -5.442  89.981 115.430  0.00  0.00     0.381 N 
ATOM     19  H   LIG d   1      -4.856  90.050 114.622  0.00  0.00    -0.090 HD
ATOM     20  H   LIG d   1      -6.399  89.961 115.125  0.00  0.00    -0.090 HD
ATOM     21  H   LIG d   1      -5.228  89.148 115.933  0.00  0.00    -0.090 HD
ENDBRANCH   5  18
BRANCH   3  22
ATOM     22  C   LIG d   1      -7.540  93.797 117.424  0.00  0.00     0.382 C 
ATOM     23  O   LIG d   1      -8.467  93.692 116.585  0.00  0.00    -0.241 OA
ATOM     24  O   LIG d   1      -7.468  94.818 118.134  0.00  0.00    -0.241 OA
ENDBRANCH   3  22
TORSDOF 7
ENDMDL
MODEL 7
REMARK VINA RESULT:      -4.2      2.508      4.377
REMARK  7 active torsions:
REMARK  status: ('A' for Active; 'I' for Inactive)
REMARK    1  A    between atoms: C_2  and  C_3 
REMARK    2  A    between atoms: C_3  and  O_6 
REMARK    3  A    between atoms: C_3  and  C_4 
REMARK    4  A    between atoms: C_7  and  O_6 
REMARK    5  A    between atoms: C_9  and  C_10 
REMARK    6  A    between atoms: N_15  and  C_14 
REMARK    7  A    between atoms: N_20  and  C_19 
REMARK       I    between atoms: C_22  and  N_20 
ROOT
ATOM      1  C   LIG d   1      -3.077  90.942 118.254  0.00  0.00     0.161 C 
ATOM      2  C   LIG d   1      -4.055  90.348 117.438  0.00  0.00     0.016 C 
ATOM      3  C   LIG d   1      -5.295  90.958 117.140  0.00  0.00     0.038 C 
ATOM      4  C   LIG d   1      -5.582  92.279 117.517  0.00  0.00     0.028 C 
ATOM      5  C   LIG d   1      -4.832  92.728 118.767  0.00  0.00    -0.047 C 
ATOM      6  C   LIG d   1      -3.326  92.429 118.583  0.00  0.00     0.091 C 
ENDROOT
BRANCH   1   7
ATOM      7  O   LIG d   1      -1.775  90.772 117.660  0.00  0.00    -0.368 OA
BRANCH   7   8
ATOM      8  C   LIG d   1      -0.891  89.833 118.320  0.00  0.00     0.119 C 
BRANCH   8   9
ATOM      9  C   LIG d   1      -0.780  88.589 117.417  0.00  0.00     0.028 C 
ATOM     10  C   LIG d   1       0.506  88.590 116.573  0.00  0.00     0.006 C 
ENDBRANCH   8   9
BRANCH   8  11
ATOM     11  C   LIG d   1      -1.495  89.328 119.633  0.00  0.00     0.028 C 
ATOM     12  C   LIG d   1      -1.734  87.810 119.634  0.00  0.00     0.006 C 
ENDBRANCH   8  11
ENDBRANCH   7   8
ENDBRANCH   1   7
BRANCH   6  13
ATOM     13  N   LIG d   1      -2.531  92.761 119.794  0.00  0.00    -0.311 N 
ATOM     14  C   LIG d   1      -1.910  93.927 119.966  0.00  0.00     0.210 C 
ATOM     15  C   LIG d   1      -1.128  94.055 121.277  0.00  0.00     0.109 C 
ATOM     16  O   LIG d   1      -1.958  94.878 119.172  0.00  0.00    -0.276 OA
ATOM     17  H   LIG d   1      -2.465  92.058 120.503  0.00  0.00     0.149 HD
ENDBRANCH   6  13
BRANCH   5  18
ATOM     18  N   LIG d   1      -5.117  94.162 118.966  0.00  0.00     0.381 N 
ATOM     19  H   LIG d   1      -5.178  94.362 119.944  0.00  0.00    -0.090 HD
ATOM     20  H   LIG d   1      -6.002  94.379 118.543  0.00  0.00    -0.090 HD
ATOM     21  H   LIG d   1      -4.398  94.713 118.551  0.00  0.00    -0.090 HD
ENDBRANCH   5  18
BRANCH   3  22
ATOM     22  C   LIG d   1      -6.280  90.230 116.491  0.00  0.00     0.382 C 
ATOM     23  O   LIG d   1      -7.443  90.192 116.959  0.00  0.00    -0.241 OA
ATOM     24  O   LIG d   1      -6.009  89.574 115.467  0.00  0.00    -0.241 OA
ENDBRANCH   3  22
TORSDOF 7
ENDMDL
MODEL 8
REMARK VINA RESULT:      -4.2      2.649      4.919
REMARK  7 active torsions:
REMARK  status: ('A' for Active; 'I' for Inactive)
REMARK    1  A    between atoms: C_2  and  C_3 
REMARK    2  A    between atoms: C_3  and  O_6 
REMARK    3  A    between atoms: C_3  and  C_4 
REMARK    4  A    between atoms: C_7  and  O_6 
REMARK    5  A    between atoms: C_9  and  C_10 
REMARK    6  A    between atoms: N_15  and  C_14 
REMARK    7  A    between atoms: N_20  and  C_19 
REMARK       I    between atoms: C_22  and  N_20 
ROOT
ATOM      1  C   LIG d   1      -2.797  91.639 118.028  0.00  0.00     0.161 C 
ATOM      2  C   LIG d   1      -4.050  92.255 118.180  0.00  0.00     0.016 C 
ATOM      3  C   LIG d   1      -5.210  91.844 117.483  0.00  0.00     0.038 C 
ATOM      4  C   LIG d   1      -5.228  90.684 116.694  0.00  0.00     0.028 C 
ATOM      5  C   LIG d   1      -3.864  90.325 116.114  0.00  0.00    -0.047 C 
ATOM      6  C   LIG d   1      -2.823  90.303 117.256  0.00  0.00     0.091 C 
ENDROOT
BRANCH   1   7
ATOM      7  O   LIG d   1      -2.180  91.460 119.318  0.00  0.00    -0.368 OA
BRANCH   7   8
ATOM      8  C   LIG d   1      -1.007  92.269 119.581  0.00  0.00     0.119 C 
BRANCH   8   9
ATOM      9  C   LIG d   1      -1.427  93.394 120.546  0.00  0.00     0.028 C 
ATOM     10  C   LIG d   1      -2.168  92.860 121.783  0.00  0.00     0.006 C 
ENDBRANCH   8   9
BRANCH   8  11
ATOM     11  C   LIG d   1      -0.525  92.980 118.313  0.00  0.00     0.028 C 
ATOM     12  C   LIG d   1       0.935  92.651 117.963  0.00  0.00     0.006 C 
ENDBRANCH   8  11
ENDBRANCH   7   8
ENDBRANCH   1   7
BRANCH   6  13
ATOM     13  N   LIG d   1      -1.446  90.042 116.762  0.00  0.00    -0.311 N 
ATOM     14  C   LIG d   1      -0.644  89.114 117.282  0.00  0.00     0.210 C 
ATOM     15  C   LIG d   1       0.743  89.024 116.638  0.00  0.00     0.109 C 
ATOM     16  O   LIG d   1      -0.961  88.336 118.194  0.00  0.00    -0.276 OA
ATOM     17  H   LIG d   1      -1.118  90.608 116.003  0.00  0.00     0.149 HD
ENDBRANCH   6  13
BRANCH   5  18
ATOM     18  N   LIG d   1      -3.999  89.024 115.430  0.00  0.00     0.381 N 
ATOM     19  H   LIG d   1      -3.739  89.119 114.469  0.00  0.00    -0.090 HD
ATOM     20  H   LIG d   1      -4.961  88.735 115.469  0.00  0.00    -0.090 HD
ATOM     21  H   LIG d   1      -3.422  88.344 115.873  0.00  0.00    -0.090 HD
ENDBRANCH   5  18
BRANCH   3  22
ATOM     22  C   LIG d   1      -6.358  92.619 117.541  0.00  0.00     0.382 C 
ATOM     23  O   LIG d   1      -7.327  92.362 116.786  0.00  0.00    -0.241 OA
ATOM     24  O   LIG d   1      -6.420  93.600 118.306  0.00  0.00    -0.241 OA
ENDBRANCH   3  22
TORSDOF 7
ENDMDL
MODEL 9
REMARK VINA RESULT:      -4.1      2.557      5.012
REMARK  7 active torsions:
REMARK  status: ('A' for Active; 'I' for Inactive)
REMARK    1  A    between atoms: C_2  and  C_3 
REMARK    2  A    between atoms: C_3  and  O_6 
REMARK    3  A    between atoms: C_3  and  C_4 
REMARK    4  A    between atoms: C_7  and  O_6 
REMARK    5  A    between atoms: C_9  and  C_10 
REMARK    6  A    between atoms: N_15  and  C_14 
REMARK    7  A    between atoms: N_20  and  C_19 
REMARK       I    between atoms: C_22  and  N_20 
ROOT
ATOM      1  C   LIG d   1      -3.113  92.842 119.711  0.00  0.00     0.161 C 
ATOM      2  C   LIG d   1      -2.618  93.991 120.350  0.00  0.00     0.016 C 
ATOM      3  C   LIG d   1      -1.657  94.850 119.770  0.00  0.00     0.038 C 
ATOM      4  C   LIG d   1      -1.235  94.701 118.441  0.00  0.00     0.028 C 
ATOM      5  C   LIG d   1      -1.328  93.266 117.933  0.00  0.00    -0.047 C 
ATOM      6  C   LIG d   1      -2.747  92.724 118.217  0.00  0.00     0.091 C 
ENDROOT
BRANCH   1   7
ATOM      7  O   LIG d   1      -4.542  92.763 119.885  0.00  0.00    -0.368 OA
BRANCH   7   8
ATOM      8  C   LIG d   1      -5.342  93.476 118.910  0.00  0.00     0.119 C 
BRANCH   8   9
ATOM      9  C   LIG d   1      -6.164  94.535 119.671  0.00  0.00     0.028 C 
ATOM     10  C   LIG d   1      -5.615  95.958 119.472  0.00  0.00     0.006 C 
ENDBRANCH   8   9
BRANCH   8  11
ATOM     11  C   LIG d   1      -6.376  92.553 118.257  0.00  0.00     0.028 C 
ATOM     12  C   LIG d   1      -7.023  93.174 117.008  0.00  0.00     0.006 C 
ENDBRANCH   8  11
ENDBRANCH   7   8
ENDBRANCH   1   7
BRANCH   6  13
ATOM     13  N   LIG d   1      -2.898  91.298 117.828  0.00  0.00    -0.311 N 
ATOM     14  C   LIG d   1      -3.452  90.905 116.682  0.00  0.00     0.210 C 
ATOM     15  C   LIG d   1      -3.527  89.387 116.487  0.00  0.00     0.109 C 
ATOM     16  O   LIG d   1      -3.858  91.669 115.794  0.00  0.00    -0.276 OA
ATOM     17  H   LIG d   1      -2.566  90.610 118.476  0.00  0.00     0.149 HD
ENDBRANCH   6  13
BRANCH   5  18
ATOM     18  N   LIG d   1      -0.989  93.278 116.498  0.00  0.00     0.381 N 
ATOM     19  H   LIG d   1      -1.817  93.426 115.956  0.00  0.00    -0.090 HD
ATOM     20  H   LIG d   1      -0.605  92.384 116.247  0.00  0.00    -0.090 HD
ATOM     21  H   LIG d   1      -0.327  93.997 116.309  0.00  0.00    -0.090 HD
ENDBRANCH   5  18
BRANCH   3  22
ATOM     22  C   LIG d   1      -1.078  95.850 120.536  0.00  0.00     0.382 C 
ATOM     23  O   LIG d   1      -0.054  95.603 121.219  0.00  0.00    -0.241 OA
ATOM     24  O   LIG d   1      -1.591  96.984 120.589  0.00  0.00    -0.241 OA
ENDBRANCH   3  22
TORSDOF 7
ENDMDL
