MODEL 1
REMARK VINA RESULT:      -5.9      0.000      0.000
REMARK  7 active torsions:
REMARK  status: ('A' for Active; 'I' for Inactive)
REMARK    1  A    between atoms: C_2  and  C_3 
REMARK    2  A    between atoms: C_3  and  O_6 
REMARK    3  A    between atoms: C_3  and  C_4 
REMARK    4  A    between atoms: C_7  and  O_6 
REMARK    5  A    between atoms: C_9  and  C_10 
REMARK    6  A    between atoms: N_15  and  C_14 
REMARK    7  A    between atoms: N_20  and  C_19 
REMARK       I    between atoms: C_22  and  N_20 
ROOT
ATOM      1  C   LIG d   1      -8.317  74.855 116.808  0.00  0.00     0.161 C 
ATOM      2  C   LIG d   1      -7.493  74.863 115.670  0.00  0.00     0.016 C 
ATOM      3  C   LIG d   1      -6.443  75.789 115.475  0.00  0.00     0.038 C 
ATOM      4  C   LIG d   1      -6.046  76.682 116.482  0.00  0.00     0.028 C 
ATOM      5  C   LIG d   1      -7.171  77.048 117.445  0.00  0.00    -0.047 C 
ATOM      6  C   LIG d   1      -7.828  75.750 117.966  0.00  0.00     0.091 C 
ENDROOT
BRANCH   1   7
ATOM      7  O   LIG d   1      -8.506  73.502 117.265  0.00  0.00    -0.368 OA
BRANCH   7   8
ATOM      8  C   LIG d   1      -9.688  72.822 116.776  0.00  0.00     0.119 C 
BRANCH   8   9
ATOM      9  C   LIG d   1     -10.753  72.888 117.888  0.00  0.00     0.028 C 
ATOM     10  C   LIG d   1     -11.731  74.060 117.697  0.00  0.00     0.006 C 
ENDBRANCH   8   9
BRANCH   8  11
ATOM     11  C   LIG d   1      -9.423  71.330 116.556  0.00  0.00     0.028 C 
ATOM     12  C   LIG d   1      -7.985  71.042 116.095  0.00  0.00     0.006 C 
ENDBRANCH   8  11
ENDBRANCH   7   8
ENDBRANCH   1   7
BRANCH   6  13
ATOM     13  N   LIG d   1      -8.993  76.019 118.849  0.00  0.00    -0.311 N 
ATOM     14  C   LIG d   1      -8.891  76.191 120.165  0.00  0.00     0.210 C 
ATOM     15  C   LIG d   1     -10.217  76.438 120.891  0.00  0.00     0.109 C 
ATOM     16  O   LIG d   1      -7.823  76.195 120.797  0.00  0.00    -0.276 OA
ATOM     17  H   LIG d   1      -9.894  76.064 118.414  0.00  0.00     0.149 HD
ENDBRANCH   6  13
BRANCH   5  18
ATOM     18  N   LIG d   1      -6.586  77.872 118.520  0.00  0.00     0.381 N 
ATOM     19  H   LIG d   1      -6.309  77.287 119.282  0.00  0.00    -0.090 HD
ATOM     20  H   LIG d   1      -7.284  78.514 118.853  0.00  0.00    -0.090 HD
ATOM     21  H   LIG d   1      -5.799  78.375 118.174  0.00  0.00    -0.090 HD
ENDBRANCH   5  18
BRANCH   3  22
ATOM     22  C   LIG d   1      -5.804  75.855 114.247  0.00  0.00     0.382 C 
ATOM     23  O   LIG d   1      -6.471  75.775 113.187  0.00  0.00    -0.241 OA
ATOM     24  O   LIG d   1      -4.563  75.949 114.184  0.00  0.00    -0.241 OA
ENDBRANCH   3  22
TORSDOF 7
ENDMDL
MODEL 2
REMARK VINA RESULT:      -5.9      1.273      2.276
REMARK  7 active torsions:
REMARK  status: ('A' for Active; 'I' for Inactive)
REMARK    1  A    between atoms: C_2  and  C_3 
REMARK    2  A    between atoms: C_3  and  O_6 
REMARK    3  A    between atoms: C_3  and  C_4 
REMARK    4  A    between atoms: C_7  and  O_6 
REMARK    5  A    between atoms: C_9  and  C_10 
REMARK    6  A    between atoms: N_15  and  C_14 
REMARK    7  A    between atoms: N_20  and  C_19 
REMARK       I    between atoms: C_22  and  N_20 
ROOT
ATOM      1  C   LIG d   1      -8.487  75.234 116.467  0.00  0.00     0.161 C 
ATOM      2  C   LIG d   1      -7.435  74.772 115.659  0.00  0.00     0.016 C 
ATOM      3  C   LIG d   1      -6.086  74.738 116.083  0.00  0.00     0.038 C 
ATOM      4  C   LIG d   1      -5.717  75.024 117.406  0.00  0.00     0.028 C 
ATOM      5  C   LIG d   1      -6.677  75.977 118.110  0.00  0.00    -0.047 C 
ATOM      6  C   LIG d   1      -8.119  75.445 117.951  0.00  0.00     0.091 C 
ENDROOT
BRANCH   1   7
ATOM      7  O   LIG d   1      -9.617  74.346 116.353  0.00  0.00    -0.368 OA
BRANCH   7   8
ATOM      8  C   LIG d   1      -9.599  73.178 117.210  0.00  0.00     0.119 C 
BRANCH   8   9
ATOM      9  C   LIG d   1      -9.589  71.935 116.299  0.00  0.00     0.028 C 
ATOM     10  C   LIG d   1      -8.223  71.228 116.288  0.00  0.00     0.006 C 
ENDBRANCH   8   9
BRANCH   8  11
ATOM     11  C   LIG d   1     -10.888  73.069 118.030  0.00  0.00     0.028 C 
ATOM     12  C   LIG d   1     -11.908  74.165 117.685  0.00  0.00     0.006 C 
ENDBRANCH   8  11
ENDBRANCH   7   8
ENDBRANCH   1   7
BRANCH   6  13
ATOM     13  N   LIG d   1      -9.130  76.363 118.539  0.00  0.00    -0.311 N 
ATOM     14  C   LIG d   1      -9.655  76.195 119.751  0.00  0.00     0.210 C 
ATOM     15  C   LIG d   1     -10.695  77.244 120.157  0.00  0.00     0.109 C 
ATOM     16  O   LIG d   1      -9.335  75.295 120.542  0.00  0.00    -0.276 OA
ATOM     17  H   LIG d   1      -9.423  77.138 117.978  0.00  0.00     0.149 HD
ENDBRANCH   6  13
BRANCH   5  18
ATOM     18  N   LIG d   1      -6.250  76.079 119.518  0.00  0.00     0.381 N 
ATOM     19  H   LIG d   1      -5.575  75.368 119.720  0.00  0.00    -0.090 HD
ATOM     20  H   LIG d   1      -7.048  75.933 120.111  0.00  0.00    -0.090 HD
ATOM     21  H   LIG d   1      -5.858  76.978 119.692  0.00  0.00    -0.090 HD
ENDBRANCH   5  18
BRANCH   3  22
ATOM     22  C   LIG d   1      -5.086  74.453 115.166  0.00  0.00     0.382 C 
ATOM     23  O   LIG d   1      -3.884  74.469 115.525  0.00  0.00    -0.241 OA
ATOM     24  O   LIG d   1      -5.367  74.223 113.975  0.00  0.00    -0.241 OA
ENDBRANCH   3  22
TORSDOF 7
ENDMDL
MODEL 3
REMARK VINA RESULT:      -5.7      2.293      4.766
REMARK  7 active torsions:
REMARK  status: ('A' for Active; 'I' for Inactive)
REMARK    1  A    between atoms: C_2  and  C_3 
REMARK    2  A    between atoms: C_3  and  O_6 
REMARK    3  A    between atoms: C_3  and  C_4 
REMARK    4  A    between atoms: C_7  and  O_6 
REMARK    5  A    between atoms: C_9  and  C_10 
REMARK    6  A    between atoms: N_15  and  C_14 
REMARK    7  A    between atoms: N_20  and  C_19 
REMARK       I    between atoms: C_22  and  N_20 
ROOT
ATOM      1  C   LIG d   1      -8.712  74.743 117.516  0.00  0.00     0.161 C 
ATOM      2  C   LIG d   1     -10.111  74.669 117.620  0.00  0.00     0.016 C 
ATOM      3  C   LIG d   1     -10.916  75.738 118.077  0.00  0.00     0.038 C 
ATOM      4  C   LIG d   1     -10.385  77.014 118.319  0.00  0.00     0.028 C 
ATOM      5  C   LIG d   1      -8.911  76.993 118.711  0.00  0.00    -0.047 C 
ATOM      6  C   LIG d   1      -8.127  76.163 117.670  0.00  0.00     0.091 C 
ENDROOT
BRANCH   1   7
ATOM      7  O   LIG d   1      -8.283  74.157 116.271  0.00  0.00    -0.368 OA
BRANCH   7   8
ATOM      8  C   LIG d   1      -7.181  73.220 116.355  0.00  0.00     0.119 C 
BRANCH   8   9
ATOM      9  C   LIG d   1      -6.095  73.695 115.370  0.00  0.00     0.028 C 
ATOM     10  C   LIG d   1      -6.565  74.873 114.501  0.00  0.00     0.006 C 
ENDBRANCH   8   9
BRANCH   8  11
ATOM     11  C   LIG d   1      -7.593  71.829 115.864  0.00  0.00     0.028 C 
ATOM     12  C   LIG d   1      -9.044  71.474 116.228  0.00  0.00     0.006 C 
ENDBRANCH   8  11
ENDBRANCH   7   8
ENDBRANCH   1   7
BRANCH   6  13
ATOM     13  N   LIG d   1      -6.691  76.021 118.023  0.00  0.00    -0.311 N 
ATOM     14  C   LIG d   1      -5.728  76.777 117.498  0.00  0.00     0.210 C 
ATOM     15  C   LIG d   1      -4.312  76.452 117.985  0.00  0.00     0.109 C 
ATOM     16  O   LIG d   1      -5.916  77.706 116.699  0.00  0.00    -0.276 OA
ATOM     17  H   LIG d   1      -6.452  75.311 118.688  0.00  0.00     0.149 HD
ENDBRANCH   6  13
BRANCH   5  18
ATOM     18  N   LIG d   1      -8.453  78.392 118.799  0.00  0.00     0.381 N 
ATOM     19  H   LIG d   1      -7.774  78.481 119.528  0.00  0.00    -0.090 HD
ATOM     20  H   LIG d   1      -9.238  78.978 119.025  0.00  0.00    -0.090 HD
ATOM     21  H   LIG d   1      -8.057  78.677 117.930  0.00  0.00    -0.090 HD
ENDBRANCH   5  18
BRANCH   3  22
ATOM     22  C   LIG d   1     -12.261  75.525 118.335  0.00  0.00     0.382 C 
ATOM     23  O   LIG d   1     -12.824  74.487 117.909  0.00  0.00    -0.241 OA
ATOM     24  O   LIG d   1     -12.930  76.377 118.949  0.00  0.00    -0.241 OA
ENDBRANCH   3  22
TORSDOF 7
ENDMDL
MODEL 4
REMARK VINA RESULT:      -5.4     15.548     17.724
REMARK  7 active torsions:
REMARK  status: ('A' for Active; 'I' for Inactive)
REMARK    1  A    between atoms: C_2  and  C_3 
REMARK    2  A    between atoms: C_3  and  O_6 
REMARK    3  A    between atoms: C_3  and  C_4 
REMARK    4  A    between atoms: C_7  and  O_6 
REMARK    5  A    between atoms: C_9  and  C_10 
REMARK    6  A    between atoms: N_15  and  C_14 
REMARK    7  A    between atoms: N_20  and  C_19 
REMARK       I    between atoms: C_22  and  N_20 
ROOT
ATOM      1  C   LIG d   1      -4.645  91.484 117.394  0.00  0.00     0.161 C 
ATOM      2  C   LIG d   1      -3.669  92.314 117.971  0.00  0.00     0.016 C 
ATOM      3  C   LIG d   1      -3.977  93.422 118.793  0.00  0.00     0.038 C 
ATOM      4  C   LIG d   1      -5.287  93.687 119.220  0.00  0.00     0.028 C 
ATOM      5  C   LIG d   1      -6.353  93.178 118.256  0.00  0.00    -0.047 C 
ATOM      6  C   LIG d   1      -6.074  91.691 117.938  0.00  0.00     0.091 C 
ENDROOT
BRANCH   1   7
ATOM      7  O   LIG d   1      -4.253  90.103 117.527  0.00  0.00    -0.368 OA
BRANCH   7   8
ATOM      8  C   LIG d   1      -2.865  89.865 117.865  0.00  0.00     0.119 C 
BRANCH   8   9
ATOM      9  C   LIG d   1      -2.245  89.039 116.720  0.00  0.00     0.028 C 
ATOM     10  C   LIG d   1      -0.710  89.116 116.705  0.00  0.00     0.006 C 
ENDBRANCH   8   9
BRANCH   8  11
ATOM     11  C   LIG d   1      -2.738  88.987 119.113  0.00  0.00     0.028 C 
ATOM     12  C   LIG d   1      -2.244  89.766 120.342  0.00  0.00     0.006 C 
ENDBRANCH   8  11
ENDBRANCH   7   8
ENDBRANCH   1   7
BRANCH   6  13
ATOM     13  N   LIG d   1      -7.022  91.138 116.936  0.00  0.00    -0.311 N 
ATOM     14  C   LIG d   1      -6.981  91.446 115.641  0.00  0.00     0.210 C 
ATOM     15  C   LIG d   1      -8.063  90.780 114.784  0.00  0.00     0.109 C 
ATOM     16  O   LIG d   1      -6.133  92.182 115.115  0.00  0.00    -0.276 OA
ATOM     17  H   LIG d   1      -7.723  90.507 117.272  0.00  0.00     0.149 HD
ENDBRANCH   6  13
BRANCH   5  18
ATOM     18  N   LIG d   1      -7.667  93.397 118.888  0.00  0.00     0.381 N 
ATOM     19  H   LIG d   1      -8.377  93.448 118.185  0.00  0.00    -0.090 HD
ATOM     20  H   LIG d   1      -7.649  94.273 119.381  0.00  0.00    -0.090 HD
ATOM     21  H   LIG d   1      -7.869  92.655 119.522  0.00  0.00    -0.090 HD
ENDBRANCH   5  18
BRANCH   3  22
ATOM     22  C   LIG d   1      -2.972  94.302 119.164  0.00  0.00     0.382 C 
ATOM     23  O   LIG d   1      -3.032  94.891 120.271  0.00  0.00    -0.241 OA
ATOM     24  O   LIG d   1      -2.030  94.550 118.388  0.00  0.00    -0.241 OA
ENDBRANCH   3  22
TORSDOF 7
ENDMDL
MODEL 5
REMARK VINA RESULT:      -5.4     15.048     17.127
REMARK  7 active torsions:
REMARK  status: ('A' for Active; 'I' for Inactive)
REMARK    1  A    between atoms: C_2  and  C_3 
REMARK    2  A    between atoms: C_3  and  O_6 
REMARK    3  A    between atoms: C_3  and  C_4 
REMARK    4  A    between atoms: C_7  and  O_6 
REMARK    5  A    between atoms: C_9  and  C_10 
REMARK    6  A    between atoms: N_15  and  C_14 
REMARK    7  A    between atoms: N_20  and  C_19 
REMARK       I    between atoms: C_22  and  N_20 
ROOT
ATOM      1  C   LIG d   1      -4.007  90.788 117.509  0.00  0.00     0.161 C 
ATOM      2  C   LIG d   1      -4.747  90.333 116.405  0.00  0.00     0.016 C 
ATOM      3  C   LIG d   1      -5.849  91.034 115.865  0.00  0.00     0.038 C 
ATOM      4  C   LIG d   1      -6.196  92.321 116.301  0.00  0.00     0.028 C 
ATOM      5  C   LIG d   1      -5.794  92.600 117.745  0.00  0.00    -0.047 C 
ATOM      6  C   LIG d   1      -4.301  92.244 117.928  0.00  0.00     0.091 C 
ENDROOT
BRANCH   1   7
ATOM      7  O   LIG d   1      -2.598  90.613 117.259  0.00  0.00    -0.368 OA
BRANCH   7   8
ATOM      8  C   LIG d   1      -2.114  89.248 117.272  0.00  0.00     0.119 C 
BRANCH   8   9
ATOM      9  C   LIG d   1      -1.954  88.827 118.746  0.00  0.00     0.028 C 
ATOM     10  C   LIG d   1      -1.248  87.469 118.896  0.00  0.00     0.006 C 
ENDBRANCH   8   9
BRANCH   8  11
ATOM     11  C   LIG d   1      -0.710  89.149 116.668  0.00  0.00     0.028 C 
ATOM     12  C   LIG d   1       0.105  90.440 116.840  0.00  0.00     0.006 C 
ENDBRANCH   8  11
ENDBRANCH   7   8
ENDBRANCH   1   7
BRANCH   6  13
ATOM     13  N   LIG d   1      -3.847  92.407 119.334  0.00  0.00    -0.311 N 
ATOM     14  C   LIG d   1      -3.266  93.515 119.793  0.00  0.00     0.210 C 
ATOM     15  C   LIG d   1      -2.857  93.466 121.268  0.00  0.00     0.109 C 
ATOM     16  O   LIG d   1      -3.079  94.544 119.126  0.00  0.00    -0.276 OA
ATOM     17  H   LIG d   1      -3.988  91.632 119.952  0.00  0.00     0.149 HD
ENDBRANCH   6  13
BRANCH   5  18
ATOM     18  N   LIG d   1      -6.089  94.018 118.024  0.00  0.00     0.381 N 
ATOM     19  H   LIG d   1      -5.705  94.592 117.301  0.00  0.00    -0.090 HD
ATOM     20  H   LIG d   1      -5.656  94.275 118.894  0.00  0.00    -0.090 HD
ATOM     21  H   LIG d   1      -7.073  94.157 118.081  0.00  0.00    -0.090 HD
ENDBRANCH   5  18
BRANCH   3  22
ATOM     22  C   LIG d   1      -6.644  90.429 114.903  0.00  0.00     0.382 C 
ATOM     23  O   LIG d   1      -7.136  89.295 115.118  0.00  0.00    -0.241 OA
ATOM     24  O   LIG d   1      -6.838  90.982 113.804  0.00  0.00    -0.241 OA
ENDBRANCH   3  22
TORSDOF 7
ENDMDL
MODEL 6
REMARK VINA RESULT:      -5.3      2.610      5.274
REMARK  7 active torsions:
REMARK  status: ('A' for Active; 'I' for Inactive)
REMARK    1  A    between atoms: C_2  and  C_3 
REMARK    2  A    between atoms: C_3  and  O_6 
REMARK    3  A    between atoms: C_3  and  C_4 
REMARK    4  A    between atoms: C_7  and  O_6 
REMARK    5  A    between atoms: C_9  and  C_10 
REMARK    6  A    between atoms: N_15  and  C_14 
REMARK    7  A    between atoms: N_20  and  C_19 
REMARK       I    between atoms: C_22  and  N_20 
ROOT
ATOM      1  C   LIG d   1      -7.922  75.401 117.574  0.00  0.00     0.161 C 
ATOM      2  C   LIG d   1      -8.130  76.720 118.012  0.00  0.00     0.016 C 
ATOM      3  C   LIG d   1      -9.389  77.214 118.424  0.00  0.00     0.038 C 
ATOM      4  C   LIG d   1     -10.503  76.374 118.570  0.00  0.00     0.028 C 
ATOM      5  C   LIG d   1     -10.464  75.152 117.659  0.00  0.00    -0.047 C 
ATOM      6  C   LIG d   1      -9.102  74.441 117.832  0.00  0.00     0.091 C 
ENDROOT
BRANCH   1   7
ATOM      7  O   LIG d   1      -6.713  74.877 118.157  0.00  0.00    -0.368 OA
BRANCH   7   8
ATOM      8  C   LIG d   1      -5.857  74.114 117.272  0.00  0.00     0.119 C 
BRANCH   8   9
ATOM      9  C   LIG d   1      -4.503  73.927 117.984  0.00  0.00     0.028 C 
ATOM     10  C   LIG d   1      -3.354  74.646 117.258  0.00  0.00     0.006 C 
ENDBRANCH   8   9
BRANCH   8  11
ATOM     11  C   LIG d   1      -5.538  74.896 115.994  0.00  0.00     0.028 C 
ATOM     12  C   LIG d   1      -6.019  74.181 114.722  0.00  0.00     0.006 C 
ENDBRANCH   8  11
ENDBRANCH   7   8
ENDBRANCH   1   7
BRANCH   6  13
ATOM     13  N   LIG d   1      -8.948  73.282 116.915  0.00  0.00    -0.311 N 
ATOM     14  C   LIG d   1      -9.164  72.020 117.284  0.00  0.00     0.210 C 
ATOM     15  C   LIG d   1      -8.928  70.976 116.189  0.00  0.00     0.109 C 
ATOM     16  O   LIG d   1      -9.560  71.670 118.406  0.00  0.00    -0.276 OA
ATOM     17  H   LIG d   1      -8.660  73.478 115.976  0.00  0.00     0.149 HD
ENDBRANCH   6  13
BRANCH   5  18
ATOM     18  N   LIG d   1     -11.612  74.296 118.013  0.00  0.00     0.381 N 
ATOM     19  H   LIG d   1     -11.308  73.547 118.602  0.00  0.00    -0.090 HD
ATOM     20  H   LIG d   1     -11.994  73.900 117.172  0.00  0.00    -0.090 HD
ATOM     21  H   LIG d   1     -12.308  74.835 118.480  0.00  0.00    -0.090 HD
ENDBRANCH   5  18
BRANCH   3  22
ATOM     22  C   LIG d   1      -9.552  78.571 118.656  0.00  0.00     0.382 C 
ATOM     23  O   LIG d   1     -10.676  79.020 118.985  0.00  0.00    -0.241 OA
ATOM     24  O   LIG d   1      -8.599  79.358 118.498  0.00  0.00    -0.241 OA
ENDBRANCH   3  22
TORSDOF 7
ENDMDL
MODEL 7
REMARK VINA RESULT:      -5.3      2.018      4.786
REMARK  7 active torsions:
REMARK  status: ('A' for Active; 'I' for Inactive)
REMARK    1  A    between atoms: C_2  and  C_3 
REMARK    2  A    between atoms: C_3  and  O_6 
REMARK    3  A    between atoms: C_3  and  C_4 
REMARK    4  A    between atoms: C_7  and  O_6 
REMARK    5  A    between atoms: C_9  and  C_10 
REMARK    6  A    between atoms: N_15  and  C_14 
REMARK    7  A    between atoms: N_20  and  C_19 
REMARK       I    between atoms: C_22  and  N_20 
ROOT
ATOM      1  C   LIG d   1      -7.914  75.748 117.716  0.00  0.00     0.161 C 
ATOM      2  C   LIG d   1      -8.884  76.563 118.324  0.00  0.00     0.016 C 
ATOM      3  C   LIG d   1      -8.711  77.949 118.541  0.00  0.00     0.038 C 
ATOM      4  C   LIG d   1      -7.610  78.649 118.023  0.00  0.00     0.028 C 
ATOM      5  C   LIG d   1      -6.370  77.780 117.844  0.00  0.00    -0.047 C 
ATOM      6  C   LIG d   1      -6.755  76.514 117.045  0.00  0.00     0.091 C 
ENDROOT
BRANCH   1   7
ATOM      7  O   LIG d   1      -8.545  74.863 116.769  0.00  0.00    -0.368 OA
BRANCH   7   8
ATOM      8  C   LIG d   1      -8.614  73.467 117.150  0.00  0.00     0.119 C 
BRANCH   8   9
ATOM      9  C   LIG d   1      -7.696  72.680 116.194  0.00  0.00     0.028 C 
ATOM     10  C   LIG d   1      -8.032  71.180 116.160  0.00  0.00     0.006 C 
ENDBRANCH   8   9
BRANCH   8  11
ATOM     11  C   LIG d   1     -10.018  72.897 116.926  0.00  0.00     0.028 C 
ATOM     12  C   LIG d   1     -11.099  73.649 117.717  0.00  0.00     0.006 C 
ENDBRANCH   8  11
ENDBRANCH   7   8
ENDBRANCH   1   7
BRANCH   6  13
ATOM     13  N   LIG d   1      -5.617  75.568 116.898  0.00  0.00    -0.311 N 
ATOM     14  C   LIG d   1      -4.813  75.548 115.836  0.00  0.00     0.210 C 
ATOM     15  C   LIG d   1      -3.715  74.481 115.877  0.00  0.00     0.109 C 
ATOM     16  O   LIG d   1      -4.886  76.334 114.880  0.00  0.00    -0.276 OA
ATOM     17  H   LIG d   1      -5.467  74.916 117.643  0.00  0.00     0.149 HD
ENDBRANCH   6  13
BRANCH   5  18
ATOM     18  N   LIG d   1      -5.345  78.599 117.171  0.00  0.00     0.381 N 
ATOM     19  H   LIG d   1      -5.615  79.562 117.189  0.00  0.00    -0.090 HD
ATOM     20  H   LIG d   1      -5.275  78.309 116.212  0.00  0.00    -0.090 HD
ATOM     21  H   LIG d   1      -4.465  78.485 117.625  0.00  0.00    -0.090 HD
ENDBRANCH   5  18
BRANCH   3  22
ATOM     22  C   LIG d   1      -9.626  78.643 119.317  0.00  0.00     0.382 C 
ATOM     23  O   LIG d   1     -10.666  79.111 118.792  0.00  0.00    -0.241 OA
ATOM     24  O   LIG d   1      -9.404  78.847 120.525  0.00  0.00    -0.241 OA
ENDBRANCH   3  22
TORSDOF 7
ENDMDL
MODEL 8
REMARK VINA RESULT:      -5.0      2.564      6.005
REMARK  7 active torsions:
REMARK  status: ('A' for Active; 'I' for Inactive)
REMARK    1  A    between atoms: C_2  and  C_3 
REMARK    2  A    between atoms: C_3  and  O_6 
REMARK    3  A    between atoms: C_3  and  C_4 
REMARK    4  A    between atoms: C_7  and  O_6 
REMARK    5  A    between atoms: C_9  and  C_10 
REMARK    6  A    between atoms: N_15  and  C_14 
REMARK    7  A    between atoms: N_20  and  C_19 
REMARK       I    between atoms: C_22  and  N_20 
ROOT
ATOM      1  C   LIG d   1      -8.490  75.386 118.085  0.00  0.00     0.161 C 
ATOM      2  C   LIG d   1      -9.772  75.815 118.467  0.00  0.00     0.016 C 
ATOM      3  C   LIG d   1     -10.952  75.087 118.187  0.00  0.00     0.038 C 
ATOM      4  C   LIG d   1     -10.914  73.798 117.635  0.00  0.00     0.028 C 
ATOM      5  C   LIG d   1      -9.681  73.543 116.775  0.00  0.00    -0.047 C 
ATOM      6  C   LIG d   1      -8.419  73.929 117.581  0.00  0.00     0.091 C 
ENDROOT
BRANCH   1   7
ATOM      7  O   LIG d   1      -7.565  75.585 119.172  0.00  0.00    -0.368 OA
BRANCH   7   8
ATOM      8  C   LIG d   1      -6.565  76.615 118.976  0.00  0.00     0.119 C 
BRANCH   8   9
ATOM      9  C   LIG d   1      -6.989  77.446 117.749  0.00  0.00     0.028 C 
ATOM     10  C   LIG d   1      -7.113  78.945 118.070  0.00  0.00     0.006 C 
ENDBRANCH   8   9
BRANCH   8  11
ATOM     11  C   LIG d   1      -5.207  76.011 118.607  0.00  0.00     0.028 C 
ATOM     12  C   LIG d   1      -4.027  76.921 118.983  0.00  0.00     0.006 C 
ENDBRANCH   8  11
ENDBRANCH   7   8
ENDBRANCH   1   7
BRANCH   6  13
ATOM     13  N   LIG d   1      -7.173  73.790 116.783  0.00  0.00    -0.311 N 
ATOM     14  C   LIG d   1      -6.969  74.416 115.626  0.00  0.00     0.210 C 
ATOM     15  C   LIG d   1      -5.623  74.118 114.957  0.00  0.00     0.109 C 
ATOM     16  O   LIG d   1      -7.761  75.216 115.105  0.00  0.00    -0.276 OA
ATOM     17  H   LIG d   1      -6.463  73.185 117.148  0.00  0.00     0.149 HD
ENDBRANCH   6  13
BRANCH   5  18
ATOM     18  N   LIG d   1      -9.700  72.123 116.378  0.00  0.00     0.381 N 
ATOM     19  H   LIG d   1      -9.241  71.570 117.074  0.00  0.00    -0.090 HD
ATOM     20  H   LIG d   1      -9.200  72.020 115.512  0.00  0.00    -0.090 HD
ATOM     21  H   LIG d   1     -10.640  71.813 116.265  0.00  0.00    -0.090 HD
ENDBRANCH   5  18
BRANCH   3  22
ATOM     22  C   LIG d   1     -12.189  75.666 118.423  0.00  0.00     0.382 C 
ATOM     23  O   LIG d   1     -12.260  76.783 118.990  0.00  0.00    -0.241 OA
ATOM     24  O   LIG d   1     -13.237  75.066 118.116  0.00  0.00    -0.241 OA
ENDBRANCH   3  22
TORSDOF 7
ENDMDL
MODEL 9
REMARK VINA RESULT:      -4.9      2.932      3.885
REMARK  7 active torsions:
REMARK  status: ('A' for Active; 'I' for Inactive)
REMARK    1  A    between atoms: C_2  and  C_3 
REMARK    2  A    between atoms: C_3  and  O_6 
REMARK    3  A    between atoms: C_3  and  C_4 
REMARK    4  A    between atoms: C_7  and  O_6 
REMARK    5  A    between atoms: C_9  and  C_10 
REMARK    6  A    between atoms: N_15  and  C_14 
REMARK    7  A    between atoms: N_20  and  C_19 
REMARK       I    between atoms: C_22  and  N_20 
ROOT
ATOM      1  C   LIG d   1      -5.030  74.759 116.877  0.00  0.00     0.161 C 
ATOM      2  C   LIG d   1      -3.871  74.225 116.290  0.00  0.00     0.016 C 
ATOM      3  C   LIG d   1      -2.563  74.536 116.726  0.00  0.00     0.038 C 
ATOM      4  C   LIG d   1      -2.328  75.291 117.885  0.00  0.00     0.028 C 
ATOM      5  C   LIG d   1      -3.455  76.264 118.213  0.00  0.00    -0.047 C 
ATOM      6  C   LIG d   1      -4.797  75.496 118.213  0.00  0.00     0.091 C 
ENDROOT
BRANCH   1   7
ATOM      7  O   LIG d   1      -6.016  73.721 117.044  0.00  0.00    -0.368 OA
BRANCH   7   8
ATOM      8  C   LIG d   1      -6.876  73.470 115.904  0.00  0.00     0.119 C 
BRANCH   8   9
ATOM      9  C   LIG d   1      -7.445  74.827 115.446  0.00  0.00     0.028 C 
ATOM     10  C   LIG d   1      -8.809  75.136 116.084  0.00  0.00     0.006 C 
ENDBRANCH   8   9
BRANCH   8  11
ATOM     11  C   LIG d   1      -8.095  72.632 116.300  0.00  0.00     0.028 C 
ATOM     12  C   LIG d   1      -7.852  71.121 116.152  0.00  0.00     0.006 C 
ENDBRANCH   8  11
ENDBRANCH   7   8
ENDBRANCH   1   7
BRANCH   6  13
ATOM     13  N   LIG d   1      -5.962  76.390 118.442  0.00  0.00    -0.311 N 
ATOM     14  C   LIG d   1      -6.243  77.440 117.672  0.00  0.00     0.210 C 
ATOM     15  C   LIG d   1      -7.478  78.241 118.097  0.00  0.00     0.109 C 
ATOM     16  O   LIG d   1      -5.605  77.766 116.660  0.00  0.00    -0.276 OA
ATOM     17  H   LIG d   1      -6.551  76.181 119.224  0.00  0.00     0.149 HD
ENDBRANCH   6  13
BRANCH   5  18
ATOM     18  N   LIG d   1      -3.144  76.884 119.515  0.00  0.00     0.381 N 
ATOM     19  H   LIG d   1      -3.986  77.212 119.944  0.00  0.00    -0.090 HD
ATOM     20  H   LIG d   1      -2.539  77.671 119.364  0.00  0.00    -0.090 HD
ATOM     21  H   LIG d   1      -2.697  76.221 120.110  0.00  0.00    -0.090 HD
ENDBRANCH   5  18
BRANCH   3  22
ATOM     22  C   LIG d   1      -1.472  74.123 115.976  0.00  0.00     0.382 C 
ATOM     23  O   LIG d   1      -1.111  74.789 114.976  0.00  0.00    -0.241 OA
ATOM     24  O   LIG d   1      -0.872  73.070 116.261  0.00  0.00    -0.241 OA
ENDBRANCH   3  22
TORSDOF 7
ENDMDL
