MODEL 1
REMARK VINA RESULT:      -6.3      0.000      0.000
REMARK  7 active torsions:
REMARK  status: ('A' for Active; 'I' for Inactive)
REMARK    1  A    between atoms: C_2  and  C_3 
REMARK    2  A    between atoms: C_3  and  O_6 
REMARK    3  A    between atoms: C_3  and  C_4 
REMARK    4  A    between atoms: C_7  and  O_6 
REMARK    5  A    between atoms: C_9  and  C_10 
REMARK    6  A    between atoms: N_15  and  C_14 
REMARK    7  A    between atoms: N_20  and  C_19 
REMARK       I    between atoms: C_22  and  N_20 
ROOT
ATOM      1  C   LIG d   1      -7.570  76.617 117.558  0.00  0.00     0.161 C 
ATOM      2  C   LIG d   1      -8.838  77.089 117.935  0.00  0.00     0.016 C 
ATOM      3  C   LIG d   1      -9.101  78.441 118.255  0.00  0.00     0.038 C 
ATOM      4  C   LIG d   1      -8.141  79.447 118.071  0.00  0.00     0.028 C 
ATOM      5  C   LIG d   1      -6.706  78.941 118.175  0.00  0.00    -0.047 C 
ATOM      6  C   LIG d   1      -6.536  77.718 117.244  0.00  0.00     0.091 C 
ENDROOT
BRANCH   1   7
ATOM      7  O   LIG d   1      -7.697  75.716 116.440  0.00  0.00    -0.368 OA
BRANCH   7   8
ATOM      8  C   LIG d   1      -7.796  74.307 116.764  0.00  0.00     0.119 C 
BRANCH   8   9
ATOM      9  C   LIG d   1      -6.832  73.549 115.832  0.00  0.00     0.028 C 
ATOM     10  C   LIG d   1      -6.011  74.496 114.941  0.00  0.00     0.006 C 
ENDBRANCH   8   9
BRANCH   8  11
ATOM     11  C   LIG d   1      -9.189  73.758 116.441  0.00  0.00     0.028 C 
ATOM     12  C   LIG d   1      -9.345  72.275 116.814  0.00  0.00     0.006 C 
ENDBRANCH   8  11
ENDBRANCH   7   8
ENDBRANCH   1   7
BRANCH   6  13
ATOM     13  N   LIG d   1      -5.185  77.110 117.349  0.00  0.00    -0.311 N 
ATOM     14  C   LIG d   1      -4.150  77.488 116.600  0.00  0.00     0.210 C 
ATOM     15  C   LIG d   1      -2.851  76.717 116.855  0.00  0.00     0.109 C 
ATOM     16  O   LIG d   1      -4.177  78.411 115.772  0.00  0.00    -0.276 OA
ATOM     17  H   LIG d   1      -5.066  76.375 118.018  0.00  0.00     0.149 HD
ENDBRANCH   6  13
BRANCH   5  18
ATOM     18  N   LIG d   1      -5.812  80.061 117.827  0.00  0.00     0.381 N 
ATOM     19  H   LIG d   1      -5.303  80.353 118.637  0.00  0.00    -0.090 HD
ATOM     20  H   LIG d   1      -6.369  80.835 117.510  0.00  0.00    -0.090 HD
ATOM     21  H   LIG d   1      -5.179  79.782 117.110  0.00  0.00    -0.090 HD
ENDBRANCH   5  18
BRANCH   3  22
ATOM     22  C   LIG d   1     -10.326  78.792 118.802  0.00  0.00     0.382 C 
ATOM     23  O   LIG d   1     -11.179  77.906 119.051  0.00  0.00    -0.241 OA
ATOM     24  O   LIG d   1     -10.606  79.988 119.009  0.00  0.00    -0.241 OA
ENDBRANCH   3  22
TORSDOF 7
ENDMDL
MODEL 2
REMARK VINA RESULT:      -6.0      1.978      4.907
REMARK  7 active torsions:
REMARK  status: ('A' for Active; 'I' for Inactive)
REMARK    1  A    between atoms: C_2  and  C_3 
REMARK    2  A    between atoms: C_3  and  O_6 
REMARK    3  A    between atoms: C_3  and  C_4 
REMARK    4  A    between atoms: C_7  and  O_6 
REMARK    5  A    between atoms: C_9  and  C_10 
REMARK    6  A    between atoms: N_15  and  C_14 
REMARK    7  A    between atoms: N_20  and  C_19 
REMARK       I    between atoms: C_22  and  N_20 
ROOT
ATOM      1  C   LIG d   1      -6.988  76.815 116.614  0.00  0.00     0.161 C 
ATOM      2  C   LIG d   1      -6.017  76.145 115.852  0.00  0.00     0.016 C 
ATOM      3  C   LIG d   1      -4.657  76.528 115.814  0.00  0.00     0.038 C 
ATOM      4  C   LIG d   1      -4.143  77.522 116.660  0.00  0.00     0.028 C 
ATOM      5  C   LIG d   1      -5.180  78.560 117.075  0.00  0.00    -0.047 C 
ATOM      6  C   LIG d   1      -6.425  77.831 117.629  0.00  0.00     0.091 C 
ENDROOT
BRANCH   1   7
ATOM      7  O   LIG d   1      -7.832  75.855 117.282  0.00  0.00    -0.368 OA
BRANCH   7   8
ATOM      8  C   LIG d   1      -8.744  75.112 116.436  0.00  0.00     0.119 C 
BRANCH   8   9
ATOM      9  C   LIG d   1     -10.137  75.171 117.094  0.00  0.00     0.028 C 
ATOM     10  C   LIG d   1     -10.312  76.409 117.989  0.00  0.00     0.006 C 
ENDBRANCH   8   9
BRANCH   8  11
ATOM     11  C   LIG d   1      -8.378  73.626 116.393  0.00  0.00     0.028 C 
ATOM     12  C   LIG d   1      -9.545  72.713 116.804  0.00  0.00     0.006 C 
ENDBRANCH   8  11
ENDBRANCH   7   8
ENDBRANCH   1   7
BRANCH   6  13
ATOM     13  N   LIG d   1      -7.522  78.771 117.980  0.00  0.00    -0.311 N 
ATOM     14  C   LIG d   1      -7.651  79.332 119.181  0.00  0.00     0.210 C 
ATOM     15  C   LIG d   1      -8.864  80.254 119.338  0.00  0.00     0.109 C 
ATOM     16  O   LIG d   1      -6.857  79.179 120.122  0.00  0.00    -0.276 OA
ATOM     17  H   LIG d   1      -8.194  78.975 117.266  0.00  0.00     0.149 HD
ENDBRANCH   6  13
BRANCH   5  18
ATOM     18  N   LIG d   1      -4.546  79.454 118.062  0.00  0.00     0.381 N 
ATOM     19  H   LIG d   1      -4.655  80.406 117.776  0.00  0.00    -0.090 HD
ATOM     20  H   LIG d   1      -3.563  79.248 118.104  0.00  0.00    -0.090 HD
ATOM     21  H   LIG d   1      -4.959  79.319 118.959  0.00  0.00    -0.090 HD
ENDBRANCH   5  18
BRANCH   3  22
ATOM     22  C   LIG d   1      -3.802  75.941 114.893  0.00  0.00     0.382 C 
ATOM     23  O   LIG d   1      -3.773  76.359 113.710  0.00  0.00    -0.241 OA
ATOM     24  O   LIG d   1      -3.094  74.970 115.218  0.00  0.00    -0.241 OA
ENDBRANCH   3  22
TORSDOF 7
ENDMDL
MODEL 3
REMARK VINA RESULT:      -5.6      2.270      2.681
REMARK  7 active torsions:
REMARK  status: ('A' for Active; 'I' for Inactive)
REMARK    1  A    between atoms: C_2  and  C_3 
REMARK    2  A    between atoms: C_3  and  O_6 
REMARK    3  A    between atoms: C_3  and  C_4 
REMARK    4  A    between atoms: C_7  and  O_6 
REMARK    5  A    between atoms: C_9  and  C_10 
REMARK    6  A    between atoms: N_15  and  C_14 
REMARK    7  A    between atoms: N_20  and  C_19 
REMARK       I    between atoms: C_22  and  N_20 
ROOT
ATOM      1  C   LIG d   1      -5.778  77.127 117.075  0.00  0.00     0.161 C 
ATOM      2  C   LIG d   1      -6.612  78.173 117.501  0.00  0.00     0.016 C 
ATOM      3  C   LIG d   1      -6.168  79.506 117.663  0.00  0.00     0.038 C 
ATOM      4  C   LIG d   1      -4.888  79.915 117.261  0.00  0.00     0.028 C 
ATOM      5  C   LIG d   1      -3.855  78.794 117.299  0.00  0.00    -0.047 C 
ATOM      6  C   LIG d   1      -4.407  77.575 116.526  0.00  0.00     0.091 C 
ENDROOT
BRANCH   1   7
ATOM      7  O   LIG d   1      -6.468  76.318 116.101  0.00  0.00    -0.368 OA
BRANCH   7   8
ATOM      8  C   LIG d   1      -7.285  75.244 116.629  0.00  0.00     0.119 C 
BRANCH   8   9
ATOM      9  C   LIG d   1      -6.857  73.945 115.918  0.00  0.00     0.028 C 
ATOM     10  C   LIG d   1      -5.812  74.195 114.818  0.00  0.00     0.006 C 
ENDBRANCH   8   9
BRANCH   8  11
ATOM     11  C   LIG d   1      -8.760  75.437 116.266  0.00  0.00     0.028 C 
ATOM     12  C   LIG d   1      -9.641  74.256 116.704  0.00  0.00     0.006 C 
ENDBRANCH   8  11
ENDBRANCH   7   8
ENDBRANCH   1   7
BRANCH   6  13
ATOM     13  N   LIG d   1      -3.494  76.404 116.586  0.00  0.00    -0.311 N 
ATOM     14  C   LIG d   1      -2.847  75.924 115.525  0.00  0.00     0.210 C 
ATOM     15  C   LIG d   1      -1.971  74.698 115.802  0.00  0.00     0.109 C 
ATOM     16  O   LIG d   1      -2.890  76.417 114.388  0.00  0.00    -0.276 OA
ATOM     17  H   LIG d   1      -3.377  75.962 117.476  0.00  0.00     0.149 HD
ENDBRANCH   6  13
BRANCH   5  18
ATOM     18  N   LIG d   1      -2.602  79.322 116.727  0.00  0.00     0.381 N 
ATOM     19  H   LIG d   1      -2.001  78.565 116.471  0.00  0.00    -0.090 HD
ATOM     20  H   LIG d   1      -2.135  79.876 117.423  0.00  0.00    -0.090 HD
ATOM     21  H   LIG d   1      -2.802  79.882 115.927  0.00  0.00    -0.090 HD
ENDBRANCH   5  18
BRANCH   3  22
ATOM     22  C   LIG d   1      -6.997  80.438 118.269  0.00  0.00     0.382 C 
ATOM     23  O   LIG d   1      -7.656  81.242 117.567  0.00  0.00    -0.241 OA
ATOM     24  O   LIG d   1      -7.061  80.513 119.511  0.00  0.00    -0.241 OA
ENDBRANCH   3  22
TORSDOF 7
ENDMDL
MODEL 4
REMARK VINA RESULT:      -5.3      1.972      4.454
REMARK  7 active torsions:
REMARK  status: ('A' for Active; 'I' for Inactive)
REMARK    1  A    between atoms: C_2  and  C_3 
REMARK    2  A    between atoms: C_3  and  O_6 
REMARK    3  A    between atoms: C_3  and  C_4 
REMARK    4  A    between atoms: C_7  and  O_6 
REMARK    5  A    between atoms: C_9  and  C_10 
REMARK    6  A    between atoms: N_15  and  C_14 
REMARK    7  A    between atoms: N_20  and  C_19 
REMARK       I    between atoms: C_22  and  N_20 
ROOT
ATOM      1  C   LIG d   1      -7.427  77.457 117.317  0.00  0.00     0.161 C 
ATOM      2  C   LIG d   1      -8.457  78.026 118.083  0.00  0.00     0.016 C 
ATOM      3  C   LIG d   1      -9.702  77.394 118.306  0.00  0.00     0.038 C 
ATOM      4  C   LIG d   1      -9.946  76.074 117.900  0.00  0.00     0.028 C 
ATOM      5  C   LIG d   1      -9.122  75.650 116.689  0.00  0.00    -0.047 C 
ATOM      6  C   LIG d   1      -7.634  75.970 116.958  0.00  0.00     0.091 C 
ENDROOT
BRANCH   1   7
ATOM      7  O   LIG d   1      -6.163  77.640 117.984  0.00  0.00    -0.368 OA
BRANCH   7   8
ATOM      8  C   LIG d   1      -5.339  78.729 117.501  0.00  0.00     0.119 C 
BRANCH   8   9
ATOM      9  C   LIG d   1      -3.871  78.262 117.560  0.00  0.00     0.028 C 
ATOM     10  C   LIG d   1      -3.624  76.997 116.720  0.00  0.00     0.006 C 
ENDBRANCH   8   9
BRANCH   8  11
ATOM     11  C   LIG d   1      -5.416  79.942 118.432  0.00  0.00     0.028 C 
ATOM     12  C   LIG d   1      -6.407  81.009 117.941  0.00  0.00     0.006 C 
ENDBRANCH   8  11
ENDBRANCH   7   8
ENDBRANCH   1   7
BRANCH   6  13
ATOM     13  N   LIG d   1      -6.767  75.664 115.790  0.00  0.00    -0.311 N 
ATOM     14  C   LIG d   1      -6.244  74.461 115.560  0.00  0.00     0.210 C 
ATOM     15  C   LIG d   1      -5.364  74.367 114.310  0.00  0.00     0.109 C 
ATOM     16  O   LIG d   1      -6.452  73.455 116.256  0.00  0.00    -0.276 OA
ATOM     17  H   LIG d   1      -6.573  76.415 115.158  0.00  0.00     0.149 HD
ENDBRANCH   6  13
BRANCH   5  18
ATOM     18  N   LIG d   1      -9.372  74.215 116.459  0.00  0.00     0.381 N 
ATOM     19  H   LIG d   1      -9.218  73.994 115.495  0.00  0.00    -0.090 HD
ATOM     20  H   LIG d   1     -10.332  74.013 116.678  0.00  0.00    -0.090 HD
ATOM     21  H   LIG d   1      -8.770  73.667 117.034  0.00  0.00    -0.090 HD
ENDBRANCH   5  18
BRANCH   3  22
ATOM     22  C   LIG d   1     -10.733  78.100 118.907  0.00  0.00     0.382 C 
ATOM     23  O   LIG d   1     -10.659  79.348 119.016  0.00  0.00    -0.241 OA
ATOM     24  O   LIG d   1     -11.716  77.500 119.382  0.00  0.00    -0.241 OA
ENDBRANCH   3  22
TORSDOF 7
ENDMDL
MODEL 5
REMARK VINA RESULT:      -5.2      2.237      4.726
REMARK  7 active torsions:
REMARK  status: ('A' for Active; 'I' for Inactive)
REMARK    1  A    between atoms: C_2  and  C_3 
REMARK    2  A    between atoms: C_3  and  O_6 
REMARK    3  A    between atoms: C_3  and  C_4 
REMARK    4  A    between atoms: C_7  and  O_6 
REMARK    5  A    between atoms: C_9  and  C_10 
REMARK    6  A    between atoms: N_15  and  C_14 
REMARK    7  A    between atoms: N_20  and  C_19 
REMARK       I    between atoms: C_22  and  N_20 
ROOT
ATOM      1  C   LIG d   1      -6.746  76.965 116.663  0.00  0.00     0.161 C 
ATOM      2  C   LIG d   1      -7.976  76.360 116.974  0.00  0.00     0.016 C 
ATOM      3  C   LIG d   1      -8.327  75.054 116.563  0.00  0.00     0.038 C 
ATOM      4  C   LIG d   1      -7.406  74.201 115.937  0.00  0.00     0.028 C 
ATOM      5  C   LIG d   1      -6.326  74.944 115.157  0.00  0.00    -0.047 C 
ATOM      6  C   LIG d   1      -5.686  76.009 116.076  0.00  0.00     0.091 C 
ENDROOT
BRANCH   1   7
ATOM      7  O   LIG d   1      -6.225  77.638 117.826  0.00  0.00    -0.368 OA
BRANCH   7   8
ATOM      8  C   LIG d   1      -6.162  79.083 117.750  0.00  0.00     0.119 C 
BRANCH   8   9
ATOM      9  C   LIG d   1      -4.738  79.507 118.161  0.00  0.00     0.028 C 
ATOM     10  C   LIG d   1      -3.884  78.317 118.630  0.00  0.00     0.006 C 
ENDBRANCH   8   9
BRANCH   8  11
ATOM     11  C   LIG d   1      -7.091  79.736 118.778  0.00  0.00     0.028 C 
ATOM     12  C   LIG d   1      -8.529  79.902 118.261  0.00  0.00     0.006 C 
ENDBRANCH   8  11
ENDBRANCH   7   8
ENDBRANCH   1   7
BRANCH   6  13
ATOM     13  N   LIG d   1      -4.678  76.838 115.366  0.00  0.00    -0.311 N 
ATOM     14  C   LIG d   1      -3.377  76.554 115.348  0.00  0.00     0.210 C 
ATOM     15  C   LIG d   1      -2.507  77.550 114.575  0.00  0.00     0.109 C 
ATOM     16  O   LIG d   1      -2.864  75.553 115.873  0.00  0.00    -0.276 OA
ATOM     17  H   LIG d   1      -5.011  77.652 114.888  0.00  0.00     0.149 HD
ENDBRANCH   6  13
BRANCH   5  18
ATOM     18  N   LIG d   1      -5.358  73.942 114.672  0.00  0.00     0.381 N 
ATOM     19  H   LIG d   1      -5.588  73.042 115.043  0.00  0.00    -0.090 HD
ATOM     20  H   LIG d   1      -4.441  74.192 114.997  0.00  0.00    -0.090 HD
ATOM     21  H   LIG d   1      -5.369  73.911 113.676  0.00  0.00    -0.090 HD
ENDBRANCH   5  18
BRANCH   3  22
ATOM     22  C   LIG d   1      -9.626  74.603 116.742  0.00  0.00     0.382 C 
ATOM     23  O   LIG d   1      -9.914  73.407 116.497  0.00  0.00    -0.241 OA
ATOM     24  O   LIG d   1     -10.523  75.388 117.104  0.00  0.00    -0.241 OA
ENDBRANCH   3  22
TORSDOF 7
ENDMDL
MODEL 6
REMARK VINA RESULT:      -5.0      1.833      5.030
REMARK  7 active torsions:
REMARK  status: ('A' for Active; 'I' for Inactive)
REMARK    1  A    between atoms: C_2  and  C_3 
REMARK    2  A    between atoms: C_3  and  O_6 
REMARK    3  A    between atoms: C_3  and  C_4 
REMARK    4  A    between atoms: C_7  and  O_6 
REMARK    5  A    between atoms: C_9  and  C_10 
REMARK    6  A    between atoms: N_15  and  C_14 
REMARK    7  A    between atoms: N_20  and  C_19 
REMARK       I    between atoms: C_22  and  N_20 
ROOT
ATOM      1  C   LIG d   1      -6.272  77.801 116.861  0.00  0.00     0.161 C 
ATOM      2  C   LIG d   1      -4.934  77.658 116.456  0.00  0.00     0.016 C 
ATOM      3  C   LIG d   1      -3.898  78.526 116.871  0.00  0.00     0.038 C 
ATOM      4  C   LIG d   1      -4.104  79.513 117.846  0.00  0.00     0.028 C 
ATOM      5  C   LIG d   1      -5.542  80.017 117.904  0.00  0.00    -0.047 C 
ATOM      6  C   LIG d   1      -6.495  78.804 118.012  0.00  0.00     0.091 C 
ENDROOT
BRANCH   1   7
ATOM      7  O   LIG d   1      -6.818  76.513 117.206  0.00  0.00    -0.368 OA
BRANCH   7   8
ATOM      8  C   LIG d   1      -7.358  75.735 116.110  0.00  0.00     0.119 C 
BRANCH   8   9
ATOM      9  C   LIG d   1      -8.716  75.170 116.567  0.00  0.00     0.028 C 
ATOM     10  C   LIG d   1      -9.449  76.115 117.534  0.00  0.00     0.006 C 
ENDBRANCH   8   9
BRANCH   8  11
ATOM     11  C   LIG d   1      -6.487  74.510 115.814  0.00  0.00     0.028 C 
ATOM     12  C   LIG d   1      -7.126  73.196 116.292  0.00  0.00     0.006 C 
ENDBRANCH   8  11
ENDBRANCH   7   8
ENDBRANCH   1   7
BRANCH   6  13
ATOM     13  N   LIG d   1      -7.926  79.204 117.989  0.00  0.00    -0.311 N 
ATOM     14  C   LIG d   1      -8.623  79.497 119.086  0.00  0.00     0.210 C 
ATOM     15  C   LIG d   1     -10.090  79.865 118.840  0.00  0.00     0.109 C 
ATOM     16  O   LIG d   1      -8.158  79.518 120.235  0.00  0.00    -0.276 OA
ATOM     17  H   LIG d   1      -8.374  79.243 117.095  0.00  0.00     0.149 HD
ENDBRANCH   6  13
BRANCH   5  18
ATOM     18  N   LIG d   1      -5.646  80.938 119.052  0.00  0.00     0.381 N 
ATOM     19  H   LIG d   1      -5.138  80.568 119.830  0.00  0.00    -0.090 HD
ATOM     20  H   LIG d   1      -6.612  81.020 119.316  0.00  0.00    -0.090 HD
ATOM     21  H   LIG d   1      -5.285  81.833 118.805  0.00  0.00    -0.090 HD
ENDBRANCH   5  18
BRANCH   3  22
ATOM     22  C   LIG d   1      -2.648  78.437 116.278  0.00  0.00     0.382 C 
ATOM     23  O   LIG d   1      -2.006  77.360 116.328  0.00  0.00    -0.241 OA
ATOM     24  O   LIG d   1      -2.135  79.432 115.733  0.00  0.00    -0.241 OA
ENDBRANCH   3  22
TORSDOF 7
ENDMDL
MODEL 7
REMARK VINA RESULT:      -4.9      2.319      4.360
REMARK  7 active torsions:
REMARK  status: ('A' for Active; 'I' for Inactive)
REMARK    1  A    between atoms: C_2  and  C_3 
REMARK    2  A    between atoms: C_3  and  O_6 
REMARK    3  A    between atoms: C_3  and  C_4 
REMARK    4  A    between atoms: C_7  and  O_6 
REMARK    5  A    between atoms: C_9  and  C_10 
REMARK    6  A    between atoms: N_15  and  C_14 
REMARK    7  A    between atoms: N_20  and  C_19 
REMARK       I    between atoms: C_22  and  N_20 
ROOT
ATOM      1  C   LIG d   1      -6.875  76.929 116.767  0.00  0.00     0.161 C 
ATOM      2  C   LIG d   1      -6.654  78.255 117.176  0.00  0.00     0.016 C 
ATOM      3  C   LIG d   1      -7.569  78.988 117.965  0.00  0.00     0.038 C 
ATOM      4  C   LIG d   1      -8.707  78.392 118.529  0.00  0.00     0.028 C 
ATOM      5  C   LIG d   1      -9.227  77.203 117.728  0.00  0.00    -0.047 C 
ATOM      6  C   LIG d   1      -8.058  76.226 117.465  0.00  0.00     0.091 C 
ENDROOT
BRANCH   1   7
ATOM      7  O   LIG d   1      -5.667  76.159 116.931  0.00  0.00    -0.368 OA
BRANCH   7   8
ATOM      8  C   LIG d   1      -4.632  76.380 115.942  0.00  0.00     0.119 C 
BRANCH   8   9
ATOM      9  C   LIG d   1      -4.400  75.045 115.208  0.00  0.00     0.028 C 
ATOM     10  C   LIG d   1      -5.589  74.651 114.316  0.00  0.00     0.006 C 
ENDBRANCH   8   9
BRANCH   8  11
ATOM     11  C   LIG d   1      -3.292  76.717 116.603  0.00  0.00     0.028 C 
ATOM     12  C   LIG d   1      -2.196  75.686 116.289  0.00  0.00     0.006 C 
ENDBRANCH   8  11
ENDBRANCH   7   8
ENDBRANCH   1   7
BRANCH   6  13
ATOM     13  N   LIG d   1      -8.462  75.075 116.615  0.00  0.00    -0.311 N 
ATOM     14  C   LIG d   1      -8.105  73.817 116.867  0.00  0.00     0.210 C 
ATOM     15  C   LIG d   1      -8.612  72.786 115.854  0.00  0.00     0.109 C 
ATOM     16  O   LIG d   1      -7.443  73.453 117.851  0.00  0.00    -0.276 OA
ATOM     17  H   LIG d   1      -9.026  75.276 115.813  0.00  0.00     0.149 HD
ENDBRANCH   6  13
BRANCH   5  18
ATOM     18  N   LIG d   1     -10.327  76.593 118.499  0.00  0.00     0.381 N 
ATOM     19  H   LIG d   1     -11.131  76.485 117.914  0.00  0.00    -0.090 HD
ATOM     20  H   LIG d   1     -10.570  77.205 119.258  0.00  0.00    -0.090 HD
ATOM     21  H   LIG d   1     -10.044  75.707 118.855  0.00  0.00    -0.090 HD
ENDBRANCH   5  18
BRANCH   3  22
ATOM     22  C   LIG d   1      -7.370  80.346 118.165  0.00  0.00     0.382 C 
ATOM     23  O   LIG d   1      -8.087  81.180 117.561  0.00  0.00    -0.241 OA
ATOM     24  O   LIG d   1      -6.454  80.748 118.906  0.00  0.00    -0.241 OA
ENDBRANCH   3  22
TORSDOF 7
ENDMDL
MODEL 8
REMARK VINA RESULT:      -4.9      2.217      6.057
REMARK  7 active torsions:
REMARK  status: ('A' for Active; 'I' for Inactive)
REMARK    1  A    between atoms: C_2  and  C_3 
REMARK    2  A    between atoms: C_3  and  O_6 
REMARK    3  A    between atoms: C_3  and  C_4 
REMARK    4  A    between atoms: C_7  and  O_6 
REMARK    5  A    between atoms: C_9  and  C_10 
REMARK    6  A    between atoms: N_15  and  C_14 
REMARK    7  A    between atoms: N_20  and  C_19 
REMARK       I    between atoms: C_22  and  N_20 
ROOT
ATOM      1  C   LIG d   1      -5.900  78.427 117.581  0.00  0.00     0.161 C 
ATOM      2  C   LIG d   1      -4.763  79.250 117.647  0.00  0.00     0.016 C 
ATOM      3  C   LIG d   1      -3.544  78.946 117.000  0.00  0.00     0.038 C 
ATOM      4  C   LIG d   1      -3.425  77.867 116.112  0.00  0.00     0.028 C 
ATOM      5  C   LIG d   1      -4.394  76.727 116.410  0.00  0.00    -0.047 C 
ATOM      6  C   LIG d   1      -5.824  77.303 116.527  0.00  0.00     0.091 C 
ENDROOT
BRANCH   1   7
ATOM      7  O   LIG d   1      -7.075  79.234 117.368  0.00  0.00    -0.368 OA
BRANCH   7   8
ATOM      8  C   LIG d   1      -7.928  79.434 118.522  0.00  0.00     0.119 C 
BRANCH   8   9
ATOM      9  C   LIG d   1      -9.160  78.525 118.350  0.00  0.00     0.028 C 
ATOM     10  C   LIG d   1     -10.271  78.843 119.365  0.00  0.00     0.006 C 
ENDBRANCH   8   9
BRANCH   8  11
ATOM     11  C   LIG d   1      -8.481  80.862 118.566  0.00  0.00     0.028 C 
ATOM     12  C   LIG d   1      -7.552  81.881 117.888  0.00  0.00     0.006 C 
ENDBRANCH   8  11
ENDBRANCH   7   8
ENDBRANCH   1   7
BRANCH   6  13
ATOM     13  N   LIG d   1      -6.822  76.268 116.901  0.00  0.00    -0.311 N 
ATOM     14  C   LIG d   1      -7.574  75.619 116.012  0.00  0.00     0.210 C 
ATOM     15  C   LIG d   1      -8.554  74.606 116.612  0.00  0.00     0.109 C 
ATOM     16  O   LIG d   1      -7.498  75.764 114.783  0.00  0.00    -0.276 OA
ATOM     17  H   LIG d   1      -6.926  76.065 117.876  0.00  0.00     0.149 HD
ENDBRANCH   6  13
BRANCH   5  18
ATOM     18  N   LIG d   1      -4.257  75.732 115.330  0.00  0.00     0.381 N 
ATOM     19  H   LIG d   1      -3.387  75.248 115.423  0.00  0.00    -0.090 HD
ATOM     20  H   LIG d   1      -4.259  76.210 114.446  0.00  0.00    -0.090 HD
ATOM     21  H   LIG d   1      -5.013  75.083 115.367  0.00  0.00    -0.090 HD
ENDBRANCH   5  18
BRANCH   3  22
ATOM     22  C   LIG d   1      -2.414  79.704 117.270  0.00  0.00     0.382 C 
ATOM     23  O   LIG d   1      -1.467  79.733 116.447  0.00  0.00    -0.241 OA
ATOM     24  O   LIG d   1      -2.312  80.324 118.345  0.00  0.00    -0.241 OA
ENDBRANCH   3  22
TORSDOF 7
ENDMDL
MODEL 9
REMARK VINA RESULT:      -4.8      3.222      5.222
REMARK  7 active torsions:
REMARK  status: ('A' for Active; 'I' for Inactive)
REMARK    1  A    between atoms: C_2  and  C_3 
REMARK    2  A    between atoms: C_3  and  O_6 
REMARK    3  A    between atoms: C_3  and  C_4 
REMARK    4  A    between atoms: C_7  and  O_6 
REMARK    5  A    between atoms: C_9  and  C_10 
REMARK    6  A    between atoms: N_15  and  C_14 
REMARK    7  A    between atoms: N_20  and  C_19 
REMARK       I    between atoms: C_22  and  N_20 
ROOT
ATOM      1  C   LIG d   1      -7.924  79.617 118.775  0.00  0.00     0.161 C 
ATOM      2  C   LIG d   1      -8.848  78.562 118.680  0.00  0.00     0.016 C 
ATOM      3  C   LIG d   1     -10.173  78.643 119.166  0.00  0.00     0.038 C 
ATOM      4  C   LIG d   1     -10.715  79.843 119.648  0.00  0.00     0.028 C 
ATOM      5  C   LIG d   1      -9.669  80.790 120.228  0.00  0.00    -0.047 C 
ATOM      6  C   LIG d   1      -8.531  80.971 119.197  0.00  0.00     0.091 C 
ENDROOT
BRANCH   1   7
ATOM      7  O   LIG d   1      -7.209  79.754 117.531  0.00  0.00    -0.368 OA
BRANCH   7   8
ATOM      8  C   LIG d   1      -5.846  79.263 117.522  0.00  0.00     0.119 C 
BRANCH   8   9
ATOM      9  C   LIG d   1      -5.883  77.803 117.032  0.00  0.00     0.028 C 
ATOM     10  C   LIG d   1      -4.497  77.292 116.606  0.00  0.00     0.006 C 
ENDBRANCH   8   9
BRANCH   8  11
ATOM     11  C   LIG d   1      -5.267  79.201 118.938  0.00  0.00     0.028 C 
ATOM     12  C   LIG d   1      -4.183  80.263 119.186  0.00  0.00     0.006 C 
ENDBRANCH   8  11
ENDBRANCH   7   8
ENDBRANCH   1   7
BRANCH   6  13
ATOM     13  N   LIG d   1      -7.425  81.816 119.718  0.00  0.00    -0.311 N 
ATOM     14  C   LIG d   1      -7.371  83.137 119.553  0.00  0.00     0.210 C 
ATOM     15  C   LIG d   1      -6.133  83.814 120.151  0.00  0.00     0.109 C 
ATOM     16  O   LIG d   1      -8.246  83.816 118.996  0.00  0.00    -0.276 OA
ATOM     17  H   LIG d   1      -6.687  81.351 120.210  0.00  0.00     0.149 HD
ENDBRANCH   6  13
BRANCH   5  18
ATOM     18  N   LIG d   1     -10.350  82.054 120.565  0.00  0.00     0.381 N 
ATOM     19  H   LIG d   1     -11.231  82.100 120.094  0.00  0.00    -0.090 HD
ATOM     20  H   LIG d   1      -9.784  82.822 120.251  0.00  0.00    -0.090 HD
ATOM     21  H   LIG d   1     -10.488  82.115 121.550  0.00  0.00    -0.090 HD
ENDBRANCH   5  18
BRANCH   3  22
ATOM     22  C   LIG d   1     -10.959  77.501 119.209  0.00  0.00     0.382 C 
ATOM     23  O   LIG d   1     -11.185  76.855 118.158  0.00  0.00    -0.241 OA
ATOM     24  O   LIG d   1     -11.483  77.135 120.278  0.00  0.00    -0.241 OA
ENDBRANCH   3  22
TORSDOF 7
ENDMDL
