MODEL 1
REMARK VINA RESULT:      -5.7      0.000      0.000
REMARK  7 active torsions:
REMARK  status: ('A' for Active; 'I' for Inactive)
REMARK    1  A    between atoms: C_2  and  C_3 
REMARK    2  A    between atoms: C_3  and  O_6 
REMARK    3  A    between atoms: C_3  and  C_4 
REMARK    4  A    between atoms: C_7  and  O_6 
REMARK    5  A    between atoms: C_9  and  C_10 
REMARK    6  A    between atoms: N_15  and  C_14 
REMARK    7  A    between atoms: N_20  and  C_19 
REMARK       I    between atoms: C_22  and  N_20 
ROOT
ATOM      1  C   LIG d   1      -7.161  75.592 116.753  0.00  0.00     0.161 C 
ATOM      2  C   LIG d   1      -8.031  74.512 116.981  0.00  0.00     0.016 C 
ATOM      3  C   LIG d   1      -7.632  73.159 116.887  0.00  0.00     0.038 C 
ATOM      4  C   LIG d   1      -6.290  72.792 116.706  0.00  0.00     0.028 C 
ATOM      5  C   LIG d   1      -5.469  73.845 115.969  0.00  0.00    -0.047 C 
ATOM      6  C   LIG d   1      -5.668  75.212 116.663  0.00  0.00     0.091 C 
ENDROOT
BRANCH   1   7
ATOM      7  O   LIG d   1      -7.362  76.602 117.761  0.00  0.00    -0.368 OA
BRANCH   7   8
ATOM      8  C   LIG d   1      -8.186  77.730 117.379  0.00  0.00     0.119 C 
BRANCH   8   9
ATOM      9  C   LIG d   1      -7.284  78.980 117.370  0.00  0.00     0.028 C 
ATOM     10  C   LIG d   1      -8.058  80.264 117.711  0.00  0.00     0.006 C 
ENDBRANCH   8   9
BRANCH   8  11
ATOM     11  C   LIG d   1      -9.263  78.015 118.429  0.00  0.00     0.028 C 
ATOM     12  C   LIG d   1     -10.356  76.936 118.469  0.00  0.00     0.006 C 
ENDBRANCH   8  11
ENDBRANCH   7   8
ENDBRANCH   1   7
BRANCH   6  13
ATOM     13  N   LIG d   1      -4.966  76.314 115.955  0.00  0.00    -0.311 N 
ATOM     14  C   LIG d   1      -4.114  77.145 116.554  0.00  0.00     0.210 C 
ATOM     15  C   LIG d   1      -3.516  78.223 115.646  0.00  0.00     0.109 C 
ATOM     16  O   LIG d   1      -3.773  77.070 117.745  0.00  0.00    -0.276 OA
ATOM     17  H   LIG d   1      -5.161  76.427 114.980  0.00  0.00     0.149 HD
ENDBRANCH   6  13
BRANCH   5  18
ATOM     18  N   LIG d   1      -4.064  73.396 115.971  0.00  0.00     0.381 N 
ATOM     19  H   LIG d   1      -3.493  74.071 116.439  0.00  0.00    -0.090 HD
ATOM     20  H   LIG d   1      -3.746  73.318 115.021  0.00  0.00    -0.090 HD
ATOM     21  H   LIG d   1      -3.989  72.513 116.427  0.00  0.00    -0.090 HD
ENDBRANCH   5  18
BRANCH   3  22
ATOM     22  C   LIG d   1      -8.588  72.156 116.936  0.00  0.00     0.382 C 
ATOM     23  O   LIG d   1      -8.256  70.962 116.736  0.00  0.00    -0.241 OA
ATOM     24  O   LIG d   1      -9.786  72.434 117.134  0.00  0.00    -0.241 OA
ENDBRANCH   3  22
TORSDOF 7
ENDMDL
MODEL 2
REMARK VINA RESULT:      -5.6      2.219      5.282
REMARK  7 active torsions:
REMARK  status: ('A' for Active; 'I' for Inactive)
REMARK    1  A    between atoms: C_2  and  C_3 
REMARK    2  A    between atoms: C_3  and  O_6 
REMARK    3  A    between atoms: C_3  and  C_4 
REMARK    4  A    between atoms: C_7  and  O_6 
REMARK    5  A    between atoms: C_9  and  C_10 
REMARK    6  A    between atoms: N_15  and  C_14 
REMARK    7  A    between atoms: N_20  and  C_19 
REMARK       I    between atoms: C_22  and  N_20 
ROOT
ATOM      1  C   LIG d   1      -7.840  76.772 117.549  0.00  0.00     0.161 C 
ATOM      2  C   LIG d   1      -8.958  77.417 118.103  0.00  0.00     0.016 C 
ATOM      3  C   LIG d   1      -9.058  78.821 118.241  0.00  0.00     0.038 C 
ATOM      4  C   LIG d   1      -8.103  79.689 117.692  0.00  0.00     0.028 C 
ATOM      5  C   LIG d   1      -6.717  79.067 117.571  0.00  0.00    -0.047 C 
ATOM      6  C   LIG d   1      -6.838  77.709 116.843  0.00  0.00     0.091 C 
ENDROOT
BRANCH   1   7
ATOM      7  O   LIG d   1      -8.272  75.732 116.650  0.00  0.00    -0.368 OA
BRANCH   7   8
ATOM      8  C   LIG d   1      -8.360  74.399 117.213  0.00  0.00     0.119 C 
BRANCH   8   9
ATOM      9  C   LIG d   1      -7.199  73.572 116.628  0.00  0.00     0.028 C 
ATOM     10  C   LIG d   1      -6.018  73.448 117.605  0.00  0.00     0.006 C 
ENDBRANCH   8   9
BRANCH   8  11
ATOM     11  C   LIG d   1      -9.637  73.685 116.757  0.00  0.00     0.028 C 
ATOM     12  C   LIG d   1      -9.665  72.202 117.158  0.00  0.00     0.006 C 
ENDBRANCH   8  11
ENDBRANCH   7   8
ENDBRANCH   1   7
BRANCH   6  13
ATOM     13  N   LIG d   1      -5.538  76.994 116.758  0.00  0.00    -0.311 N 
ATOM     14  C   LIG d   1      -5.026  76.536 115.616  0.00  0.00     0.210 C 
ATOM     15  C   LIG d   1      -3.684  75.810 115.754  0.00  0.00     0.109 C 
ATOM     16  O   LIG d   1      -5.541  76.691 114.499  0.00  0.00    -0.276 OA
ATOM     17  H   LIG d   1      -5.038  76.852 117.614  0.00  0.00     0.149 HD
ENDBRANCH   6  13
BRANCH   5  18
ATOM     18  N   LIG d   1      -5.856  80.030 116.859  0.00  0.00     0.381 N 
ATOM     19  H   LIG d   1      -5.043  79.564 116.508  0.00  0.00    -0.090 HD
ATOM     20  H   LIG d   1      -5.558  80.740 117.505  0.00  0.00    -0.090 HD
ATOM     21  H   LIG d   1      -6.360  80.446 116.106  0.00  0.00    -0.090 HD
ENDBRANCH   5  18
BRANCH   3  22
ATOM     22  C   LIG d   1     -10.103  79.367 118.970  0.00  0.00     0.382 C 
ATOM     23  O   LIG d   1     -10.156  80.607 119.158  0.00  0.00    -0.241 OA
ATOM     24  O   LIG d   1     -10.970  78.632 119.480  0.00  0.00    -0.241 OA
ENDBRANCH   3  22
TORSDOF 7
ENDMDL
MODEL 3
REMARK VINA RESULT:      -5.6      2.253      3.468
REMARK  7 active torsions:
REMARK  status: ('A' for Active; 'I' for Inactive)
REMARK    1  A    between atoms: C_2  and  C_3 
REMARK    2  A    between atoms: C_3  and  O_6 
REMARK    3  A    between atoms: C_3  and  C_4 
REMARK    4  A    between atoms: C_7  and  O_6 
REMARK    5  A    between atoms: C_9  and  C_10 
REMARK    6  A    between atoms: N_15  and  C_14 
REMARK    7  A    between atoms: N_20  and  C_19 
REMARK       I    between atoms: C_22  and  N_20 
ROOT
ATOM      1  C   LIG d   1      -6.753  76.550 115.652  0.00  0.00     0.161 C 
ATOM      2  C   LIG d   1      -6.447  75.236 115.261  0.00  0.00     0.016 C 
ATOM      3  C   LIG d   1      -5.344  74.511 115.768  0.00  0.00     0.038 C 
ATOM      4  C   LIG d   1      -4.555  75.000 116.819  0.00  0.00     0.028 C 
ATOM      5  C   LIG d   1      -4.520  76.523 116.893  0.00  0.00    -0.047 C 
ATOM      6  C   LIG d   1      -5.969  77.059 116.880  0.00  0.00     0.091 C 
ENDROOT
BRANCH   1   7
ATOM      7  O   LIG d   1      -8.171  76.675 115.876  0.00  0.00    -0.368 OA
BRANCH   7   8
ATOM      8  C   LIG d   1      -8.663  76.172 117.143  0.00  0.00     0.119 C 
BRANCH   8   9
ATOM      9  C   LIG d   1      -9.821  75.202 116.838  0.00  0.00     0.028 C 
ATOM     10  C   LIG d   1      -9.424  73.731 117.047  0.00  0.00     0.006 C 
ENDBRANCH   8   9
BRANCH   8  11
ATOM     11  C   LIG d   1      -9.283  77.292 117.984  0.00  0.00     0.028 C 
ATOM     12  C   LIG d   1     -10.570  76.854 118.703  0.00  0.00     0.006 C 
ENDBRANCH   8  11
ENDBRANCH   7   8
ENDBRANCH   1   7
BRANCH   6  13
ATOM     13  N   LIG d   1      -6.024  78.544 116.864  0.00  0.00    -0.311 N 
ATOM     14  C   LIG d   1      -6.168  79.284 117.962  0.00  0.00     0.210 C 
ATOM     15  C   LIG d   1      -6.220  80.796 117.721  0.00  0.00     0.109 C 
ATOM     16  O   LIG d   1      -6.225  78.834 119.116  0.00  0.00    -0.276 OA
ATOM     17  H   LIG d   1      -5.953  78.994 115.972  0.00  0.00     0.149 HD
ENDBRANCH   6  13
BRANCH   5  18
ATOM     18  N   LIG d   1      -3.777  76.893 118.112  0.00  0.00     0.381 N 
ATOM     19  H   LIG d   1      -2.796  76.758 117.966  0.00  0.00    -0.090 HD
ATOM     20  H   LIG d   1      -4.068  76.294 118.865  0.00  0.00    -0.090 HD
ATOM     21  H   LIG d   1      -3.958  77.845 118.346  0.00  0.00    -0.090 HD
ENDBRANCH   5  18
BRANCH   3  22
ATOM     22  C   LIG d   1      -4.997  73.298 115.193  0.00  0.00     0.382 C 
ATOM     23  O   LIG d   1      -4.209  73.269 114.217  0.00  0.00    -0.241 OA
ATOM     24  O   LIG d   1      -5.495  72.235 115.611  0.00  0.00    -0.241 OA
ENDBRANCH   3  22
TORSDOF 7
ENDMDL
MODEL 4
REMARK VINA RESULT:      -5.6      2.890      5.133
REMARK  7 active torsions:
REMARK  status: ('A' for Active; 'I' for Inactive)
REMARK    1  A    between atoms: C_2  and  C_3 
REMARK    2  A    between atoms: C_3  and  O_6 
REMARK    3  A    between atoms: C_3  and  C_4 
REMARK    4  A    between atoms: C_7  and  O_6 
REMARK    5  A    between atoms: C_9  and  C_10 
REMARK    6  A    between atoms: N_15  and  C_14 
REMARK    7  A    between atoms: N_20  and  C_19 
REMARK       I    between atoms: C_22  and  N_20 
ROOT
ATOM      1  C   LIG d   1      -3.640  74.602 115.883  0.00  0.00     0.161 C 
ATOM      2  C   LIG d   1      -4.251  73.375 115.574  0.00  0.00     0.016 C 
ATOM      3  C   LIG d   1      -5.614  73.099 115.826  0.00  0.00     0.038 C 
ATOM      4  C   LIG d   1      -6.502  74.090 116.270  0.00  0.00     0.028 C 
ATOM      5  C   LIG d   1      -5.823  75.196 117.071  0.00  0.00    -0.047 C 
ATOM      6  C   LIG d   1      -4.618  75.733 116.265  0.00  0.00     0.091 C 
ENDROOT
BRANCH   1   7
ATOM      7  O   LIG d   1      -2.796  75.017 114.791  0.00  0.00    -0.368 OA
BRANCH   7   8
ATOM      8  C   LIG d   1      -1.369  74.969 115.035  0.00  0.00     0.119 C 
BRANCH   8   9
ATOM      9  C   LIG d   1      -1.160  74.409 116.456  0.00  0.00     0.028 C 
ATOM     10  C   LIG d   1      -0.312  75.343 117.336  0.00  0.00     0.006 C 
ENDBRANCH   8   9
BRANCH   8  11
ATOM     11  C   LIG d   1      -0.760  76.374 115.059  0.00  0.00     0.028 C 
ATOM     12  C   LIG d   1      -1.331  77.290 113.965  0.00  0.00     0.006 C 
ENDBRANCH   8  11
ENDBRANCH   7   8
ENDBRANCH   1   7
BRANCH   6  13
ATOM     13  N   LIG d   1      -3.848  76.760 117.014  0.00  0.00    -0.311 N 
ATOM     14  C   LIG d   1      -3.753  78.031 116.627  0.00  0.00     0.210 C 
ATOM     15  C   LIG d   1      -2.894  78.919 117.532  0.00  0.00     0.109 C 
ATOM     16  O   LIG d   1      -4.326  78.514 115.639  0.00  0.00    -0.276 OA
ATOM     17  H   LIG d   1      -3.377  76.461 117.845  0.00  0.00     0.149 HD
ENDBRANCH   6  13
BRANCH   5  18
ATOM     18  N   LIG d   1      -6.838  76.230 117.352  0.00  0.00     0.381 N 
ATOM     19  H   LIG d   1      -6.446  77.138 117.203  0.00  0.00    -0.090 HD
ATOM     20  H   LIG d   1      -7.115  76.160 118.315  0.00  0.00    -0.090 HD
ATOM     21  H   LIG d   1      -7.629  76.100 116.760  0.00  0.00    -0.090 HD
ENDBRANCH   5  18
BRANCH   3  22
ATOM     22  C   LIG d   1      -6.093  71.807 115.672  0.00  0.00     0.382 C 
ATOM     23  O   LIG d   1      -5.422  70.961 115.033  0.00  0.00    -0.241 OA
ATOM     24  O   LIG d   1      -7.209  71.488 116.125  0.00  0.00    -0.241 OA
ENDBRANCH   3  22
TORSDOF 7
ENDMDL
MODEL 5
REMARK VINA RESULT:      -5.5      2.384      5.492
REMARK  7 active torsions:
REMARK  status: ('A' for Active; 'I' for Inactive)
REMARK    1  A    between atoms: C_2  and  C_3 
REMARK    2  A    between atoms: C_3  and  O_6 
REMARK    3  A    between atoms: C_3  and  C_4 
REMARK    4  A    between atoms: C_7  and  O_6 
REMARK    5  A    between atoms: C_9  and  C_10 
REMARK    6  A    between atoms: N_15  and  C_14 
REMARK    7  A    between atoms: N_20  and  C_19 
REMARK       I    between atoms: C_22  and  N_20 
ROOT
ATOM      1  C   LIG d   1      -6.125  77.177 116.951  0.00  0.00     0.161 C 
ATOM      2  C   LIG d   1      -6.804  78.365 117.270  0.00  0.00     0.016 C 
ATOM      3  C   LIG d   1      -6.239  79.651 117.108  0.00  0.00     0.038 C 
ATOM      4  C   LIG d   1      -5.004  79.844 116.470  0.00  0.00     0.028 C 
ATOM      5  C   LIG d   1      -4.066  78.647 116.592  0.00  0.00    -0.047 C 
ATOM      6  C   LIG d   1      -4.820  77.372 116.151  0.00  0.00     0.091 C 
ENDROOT
BRANCH   1   7
ATOM      7  O   LIG d   1      -7.011  76.280 116.253  0.00  0.00    -0.368 OA
BRANCH   7   8
ATOM      8  C   LIG d   1      -7.654  75.263 117.061  0.00  0.00     0.119 C 
BRANCH   8   9
ATOM      9  C   LIG d   1      -7.123  73.895 116.590  0.00  0.00     0.028 C 
ATOM     10  C   LIG d   1      -6.080  73.307 117.555  0.00  0.00     0.006 C 
ENDBRANCH   8   9
BRANCH   8  11
ATOM     11  C   LIG d   1      -9.164  75.221 116.806  0.00  0.00     0.028 C 
ATOM     12  C   LIG d   1      -9.791  73.863 117.160  0.00  0.00     0.006 C 
ENDBRANCH   8  11
ENDBRANCH   7   8
ENDBRANCH   1   7
BRANCH   6  13
ATOM     13  N   LIG d   1      -4.002  76.143 116.320  0.00  0.00    -0.311 N 
ATOM     14  C   LIG d   1      -3.791  75.263 115.342  0.00  0.00     0.210 C 
ATOM     15  C   LIG d   1      -2.934  74.055 115.734  0.00  0.00     0.109 C 
ATOM     16  O   LIG d   1      -4.205  75.384 114.180  0.00  0.00    -0.276 OA
ATOM     17  H   LIG d   1      -3.601  75.982 117.223  0.00  0.00     0.149 HD
ENDBRANCH   6  13
BRANCH   5  18
ATOM     18  N   LIG d   1      -2.875  78.929 115.769  0.00  0.00     0.381 N 
ATOM     19  H   LIG d   1      -2.581  78.094 115.302  0.00  0.00    -0.090 HD
ATOM     20  H   LIG d   1      -2.130  79.234 116.370  0.00  0.00    -0.090 HD
ATOM     21  H   LIG d   1      -3.083  79.637 115.100  0.00  0.00    -0.090 HD
ENDBRANCH   5  18
BRANCH   3  22
ATOM     22  C   LIG d   1      -6.894  80.759 117.623  0.00  0.00     0.382 C 
ATOM     23  O   LIG d   1      -7.511  81.536 116.854  0.00  0.00    -0.241 OA
ATOM     24  O   LIG d   1      -6.839  81.017 118.840  0.00  0.00    -0.241 OA
ENDBRANCH   3  22
TORSDOF 7
ENDMDL
MODEL 6
REMARK VINA RESULT:      -5.5      1.706      2.363
REMARK  7 active torsions:
REMARK  status: ('A' for Active; 'I' for Inactive)
REMARK    1  A    between atoms: C_2  and  C_3 
REMARK    2  A    between atoms: C_3  and  O_6 
REMARK    3  A    between atoms: C_3  and  C_4 
REMARK    4  A    between atoms: C_7  and  O_6 
REMARK    5  A    between atoms: C_9  and  C_10 
REMARK    6  A    between atoms: N_15  and  C_14 
REMARK    7  A    between atoms: N_20  and  C_19 
REMARK       I    between atoms: C_22  and  N_20 
ROOT
ATOM      1  C   LIG d   1      -6.469  76.858 115.735  0.00  0.00     0.161 C 
ATOM      2  C   LIG d   1      -7.737  76.495 116.217  0.00  0.00     0.016 C 
ATOM      3  C   LIG d   1      -8.030  75.221 116.756  0.00  0.00     0.038 C 
ATOM      4  C   LIG d   1      -7.029  74.267 116.990  0.00  0.00     0.028 C 
ATOM      5  C   LIG d   1      -5.832  74.404 116.054  0.00  0.00    -0.047 C 
ATOM      6  C   LIG d   1      -5.337  75.868 116.083  0.00  0.00     0.091 C 
ENDROOT
BRANCH   1   7
ATOM      7  O   LIG d   1      -6.133  78.183 116.190  0.00  0.00    -0.368 OA
BRANCH   7   8
ATOM      8  C   LIG d   1      -6.666  78.567 117.482  0.00  0.00     0.119 C 
BRANCH   8   9
ATOM      9  C   LIG d   1      -7.025  80.064 117.408  0.00  0.00     0.028 C 
ATOM     10  C   LIG d   1      -8.468  80.344 117.860  0.00  0.00     0.006 C 
ENDBRANCH   8   9
BRANCH   8  11
ATOM     11  C   LIG d   1      -5.602  78.459 118.578  0.00  0.00     0.028 C 
ATOM     12  C   LIG d   1      -5.789  77.221 119.470  0.00  0.00     0.006 C 
ENDBRANCH   8  11
ENDBRANCH   7   8
ENDBRANCH   1   7
BRANCH   6  13
ATOM     13  N   LIG d   1      -4.221  76.108 115.131  0.00  0.00    -0.311 N 
ATOM     14  C   LIG d   1      -3.103  76.753 115.460  0.00  0.00     0.210 C 
ATOM     15  C   LIG d   1      -2.088  76.909 114.323  0.00  0.00     0.109 C 
ATOM     16  O   LIG d   1      -2.842  77.182 116.594  0.00  0.00    -0.276 OA
ATOM     17  H   LIG d   1      -4.337  75.766 114.197  0.00  0.00     0.149 HD
ENDBRANCH   6  13
BRANCH   5  18
ATOM     18  N   LIG d   1      -4.808  73.439 116.496  0.00  0.00     0.381 N 
ATOM     19  H   LIG d   1      -3.978  73.551 115.949  0.00  0.00    -0.090 HD
ATOM     20  H   LIG d   1      -5.156  72.507 116.355  0.00  0.00    -0.090 HD
ATOM     21  H   LIG d   1      -4.600  73.580 117.460  0.00  0.00    -0.090 HD
ENDBRANCH   5  18
BRANCH   3  22
ATOM     22  C   LIG d   1      -9.345  74.877 117.032  0.00  0.00     0.382 C 
ATOM     23  O   LIG d   1     -10.184  75.771 117.297  0.00  0.00    -0.241 OA
ATOM     24  O   LIG d   1      -9.692  73.681 117.061  0.00  0.00    -0.241 OA
ENDBRANCH   3  22
TORSDOF 7
ENDMDL
MODEL 7
REMARK VINA RESULT:      -5.4      2.270      5.597
REMARK  7 active torsions:
REMARK  status: ('A' for Active; 'I' for Inactive)
REMARK    1  A    between atoms: C_2  and  C_3 
REMARK    2  A    between atoms: C_3  and  O_6 
REMARK    3  A    between atoms: C_3  and  C_4 
REMARK    4  A    between atoms: C_7  and  O_6 
REMARK    5  A    between atoms: C_9  and  C_10 
REMARK    6  A    between atoms: N_15  and  C_14 
REMARK    7  A    between atoms: N_20  and  C_19 
REMARK       I    between atoms: C_22  and  N_20 
ROOT
ATOM      1  C   LIG d   1      -6.437  76.987 116.832  0.00  0.00     0.161 C 
ATOM      2  C   LIG d   1      -7.057  78.191 117.203  0.00  0.00     0.016 C 
ATOM      3  C   LIG d   1      -8.412  78.280 117.598  0.00  0.00     0.038 C 
ATOM      4  C   LIG d   1      -9.202  77.138 117.795  0.00  0.00     0.028 C 
ATOM      5  C   LIG d   1      -8.767  75.946 116.949  0.00  0.00    -0.047 C 
ATOM      6  C   LIG d   1      -7.252  75.715 117.148  0.00  0.00     0.091 C 
ENDROOT
BRANCH   1   7
ATOM      7  O   LIG d   1      -5.129  76.906 117.433  0.00  0.00    -0.368 OA
BRANCH   7   8
ATOM      8  C   LIG d   1      -4.005  76.944 116.520  0.00  0.00     0.119 C 
BRANCH   8   9
ATOM      9  C   LIG d   1      -2.978  75.902 117.006  0.00  0.00     0.028 C 
ATOM     10  C   LIG d   1      -2.703  74.814 115.954  0.00  0.00     0.006 C 
ENDBRANCH   8   9
BRANCH   8  11
ATOM     11  C   LIG d   1      -3.278  78.290 116.587  0.00  0.00     0.028 C 
ATOM     12  C   LIG d   1      -3.411  79.104 115.290  0.00  0.00     0.006 C 
ENDBRANCH   8  11
ENDBRANCH   7   8
ENDBRANCH   1   7
BRANCH   6  13
ATOM     13  N   LIG d   1      -6.728  74.620 116.291  0.00  0.00    -0.311 N 
ATOM     14  C   LIG d   1      -6.158  73.519 116.775  0.00  0.00     0.210 C 
ATOM     15  C   LIG d   1      -5.668  72.525 115.718  0.00  0.00     0.109 C 
ATOM     16  O   LIG d   1      -6.040  73.255 117.982  0.00  0.00    -0.276 OA
ATOM     17  H   LIG d   1      -6.810  74.738 115.300  0.00  0.00     0.149 HD
ENDBRANCH   6  13
BRANCH   5  18
ATOM     18  N   LIG d   1      -9.587  74.789 117.354  0.00  0.00     0.381 N 
ATOM     19  H   LIG d   1     -10.548  75.058 117.412  0.00  0.00    -0.090 HD
ATOM     20  H   LIG d   1      -9.289  74.482 118.264  0.00  0.00    -0.090 HD
ATOM     21  H   LIG d   1      -9.481  74.048 116.695  0.00  0.00    -0.090 HD
ENDBRANCH   5  18
BRANCH   3  22
ATOM     22  C   LIG d   1      -9.000  79.524 117.761  0.00  0.00     0.382 C 
ATOM     23  O   LIG d   1     -10.148  79.615 118.261  0.00  0.00    -0.241 OA
ATOM     24  O   LIG d   1      -8.417  80.555 117.375  0.00  0.00    -0.241 OA
ENDBRANCH   3  22
TORSDOF 7
ENDMDL
MODEL 8
REMARK VINA RESULT:      -5.4      1.896      2.628
REMARK  7 active torsions:
REMARK  status: ('A' for Active; 'I' for Inactive)
REMARK    1  A    between atoms: C_2  and  C_3 
REMARK    2  A    between atoms: C_3  and  O_6 
REMARK    3  A    between atoms: C_3  and  C_4 
REMARK    4  A    between atoms: C_7  and  O_6 
REMARK    5  A    between atoms: C_9  and  C_10 
REMARK    6  A    between atoms: N_15  and  C_14 
REMARK    7  A    between atoms: N_20  and  C_19 
REMARK       I    between atoms: C_22  and  N_20 
ROOT
ATOM      1  C   LIG d   1      -5.867  75.722 115.345  0.00  0.00     0.161 C 
ATOM      2  C   LIG d   1      -6.404  74.446 115.584  0.00  0.00     0.016 C 
ATOM      3  C   LIG d   1      -5.612  73.304 115.840  0.00  0.00     0.038 C 
ATOM      4  C   LIG d   1      -4.224  73.390 116.024  0.00  0.00     0.028 C 
ATOM      5  C   LIG d   1      -3.588  74.568 115.293  0.00  0.00    -0.047 C 
ATOM      6  C   LIG d   1      -4.361  75.858 115.651  0.00  0.00     0.091 C 
ENDROOT
BRANCH   1   7
ATOM      7  O   LIG d   1      -6.618  76.713 116.074  0.00  0.00    -0.368 OA
BRANCH   7   8
ATOM      8  C   LIG d   1      -7.140  76.298 117.360  0.00  0.00     0.119 C 
BRANCH   8   9
ATOM      9  C   LIG d   1      -8.619  76.730 117.420  0.00  0.00     0.028 C 
ATOM     10  C   LIG d   1      -9.583  75.556 117.180  0.00  0.00     0.006 C 
ENDBRANCH   8   9
BRANCH   8  11
ATOM     11  C   LIG d   1      -6.453  77.044 118.507  0.00  0.00     0.028 C 
ATOM     12  C   LIG d   1      -5.330  76.225 119.163  0.00  0.00     0.006 C 
ENDBRANCH   8  11
ENDBRANCH   7   8
ENDBRANCH   1   7
BRANCH   6  13
ATOM     13  N   LIG d   1      -3.856  77.045 114.913  0.00  0.00    -0.311 N 
ATOM     14  C   LIG d   1      -3.566  78.204 115.499  0.00  0.00     0.210 C 
ATOM     15  C   LIG d   1      -3.080  79.305 114.551  0.00  0.00     0.109 C 
ATOM     16  O   LIG d   1      -3.635  78.417 116.719  0.00  0.00    -0.276 OA
ATOM     17  H   LIG d   1      -3.741  76.951 113.922  0.00  0.00     0.149 HD
ENDBRANCH   6  13
BRANCH   5  18
ATOM     18  N   LIG d   1      -2.166  74.619 115.682  0.00  0.00     0.381 N 
ATOM     19  H   LIG d   1      -1.921  73.787 116.180  0.00  0.00    -0.090 HD
ATOM     20  H   LIG d   1      -2.024  75.405 116.292  0.00  0.00    -0.090 HD
ATOM     21  H   LIG d   1      -1.594  74.711 114.871  0.00  0.00    -0.090 HD
ENDBRANCH   5  18
BRANCH   3  22
ATOM     22  C   LIG d   1      -6.204  72.050 115.875  0.00  0.00     0.382 C 
ATOM     23  O   LIG d   1      -5.650  71.079 115.305  0.00  0.00    -0.241 OA
ATOM     24  O   LIG d   1      -7.307  71.888 116.430  0.00  0.00    -0.241 OA
ENDBRANCH   3  22
TORSDOF 7
ENDMDL
MODEL 9
REMARK VINA RESULT:      -5.3      2.275      4.708
REMARK  7 active torsions:
REMARK  status: ('A' for Active; 'I' for Inactive)
REMARK    1  A    between atoms: C_2  and  C_3 
REMARK    2  A    between atoms: C_3  and  O_6 
REMARK    3  A    between atoms: C_3  and  C_4 
REMARK    4  A    between atoms: C_7  and  O_6 
REMARK    5  A    between atoms: C_9  and  C_10 
REMARK    6  A    between atoms: N_15  and  C_14 
REMARK    7  A    between atoms: N_20  and  C_19 
REMARK       I    between atoms: C_22  and  N_20 
ROOT
ATOM      1  C   LIG d   1      -5.795  75.891 116.708  0.00  0.00     0.161 C 
ATOM      2  C   LIG d   1      -7.086  75.346 116.808  0.00  0.00     0.016 C 
ATOM      3  C   LIG d   1      -8.245  76.126 117.025  0.00  0.00     0.038 C 
ATOM      4  C   LIG d   1      -8.210  77.528 117.006  0.00  0.00     0.028 C 
ATOM      5  C   LIG d   1      -6.858  78.106 117.412  0.00  0.00    -0.047 C 
ATOM      6  C   LIG d   1      -5.750  77.427 116.573  0.00  0.00     0.091 C 
ENDROOT
BRANCH   1   7
ATOM      7  O   LIG d   1      -5.087  75.271 115.616  0.00  0.00    -0.368 OA
BRANCH   7   8
ATOM      8  C   LIG d   1      -4.457  73.999 115.906  0.00  0.00     0.119 C 
BRANCH   8   9
ATOM      9  C   LIG d   1      -2.939  74.245 115.999  0.00  0.00     0.028 C 
ATOM     10  C   LIG d   1      -2.494  75.480 115.198  0.00  0.00     0.006 C 
ENDBRANCH   8   9
BRANCH   8  11
ATOM     11  C   LIG d   1      -4.638  73.012 114.749  0.00  0.00     0.028 C 
ATOM     12  C   LIG d   1      -5.364  71.725 115.171  0.00  0.00     0.006 C 
ENDBRANCH   8  11
ENDBRANCH   7   8
ENDBRANCH   1   7
BRANCH   6  13
ATOM     13  N   LIG d   1      -4.388  77.874 116.966  0.00  0.00    -0.311 N 
ATOM     14  C   LIG d   1      -3.713  78.823 116.321  0.00  0.00     0.210 C 
ATOM     15  C   LIG d   1      -2.317  79.117 116.878  0.00  0.00     0.109 C 
ATOM     16  O   LIG d   1      -4.151  79.473 115.359  0.00  0.00    -0.276 OA
ATOM     17  H   LIG d   1      -3.970  77.422 117.755  0.00  0.00     0.149 HD
ENDBRANCH   6  13
BRANCH   5  18
ATOM     18  N   LIG d   1      -6.920  79.566 117.215  0.00  0.00     0.381 N 
ATOM     19  H   LIG d   1      -6.336  79.829 116.446  0.00  0.00    -0.090 HD
ATOM     20  H   LIG d   1      -6.575  80.021 118.042  0.00  0.00    -0.090 HD
ATOM     21  H   LIG d   1      -7.859  79.847 117.039  0.00  0.00    -0.090 HD
ENDBRANCH   5  18
BRANCH   3  22
ATOM     22  C   LIG d   1      -9.451  75.502 117.304  0.00  0.00     0.382 C 
ATOM     23  O   LIG d   1      -9.560  74.259 117.171  0.00  0.00    -0.241 OA
ATOM     24  O   LIG d   1     -10.445  76.171 117.646  0.00  0.00    -0.241 OA
ENDBRANCH   3  22
TORSDOF 7
ENDMDL
