MODEL 1
REMARK VINA RESULT:      -5.9      0.000      0.000
REMARK  7 active torsions:
REMARK  status: ('A' for Active; 'I' for Inactive)
REMARK    1  A    between atoms: C_2  and  C_3 
REMARK    2  A    between atoms: C_3  and  O_6 
REMARK    3  A    between atoms: C_3  and  C_4 
REMARK    4  A    between atoms: C_7  and  O_6 
REMARK    5  A    between atoms: C_9  and  C_10 
REMARK    6  A    between atoms: N_15  and  C_14 
REMARK    7  A    between atoms: N_20  and  C_19 
REMARK       I    between atoms: C_22  and  N_20 
ROOT
ATOM      1  C   LIG d   1      -6.230  76.872 117.113  0.00  0.00     0.161 C 
ATOM      2  C   LIG d   1      -7.571  77.034 117.501  0.00  0.00     0.016 C 
ATOM      3  C   LIG d   1      -8.001  78.021 118.418  0.00  0.00     0.038 C 
ATOM      4  C   LIG d   1      -7.136  79.015 118.898  0.00  0.00     0.028 C 
ATOM      5  C   LIG d   1      -5.674  78.583 118.927  0.00  0.00    -0.047 C 
ATOM      6  C   LIG d   1      -5.290  78.018 117.540  0.00  0.00     0.091 C 
ENDROOT
BRANCH   1   7
ATOM      7  O   LIG d   1      -6.155  76.666 115.688  0.00  0.00    -0.368 OA
BRANCH   7   8
ATOM      8  C   LIG d   1      -6.273  75.296 115.235  0.00  0.00     0.119 C 
BRANCH   8   9
ATOM      9  C   LIG d   1      -5.756  74.387 116.367  0.00  0.00     0.028 C 
ATOM     10  C   LIG d   1      -6.203  72.925 116.197  0.00  0.00     0.006 C 
ENDBRANCH   8   9
BRANCH   8  11
ATOM     11  C   LIG d   1      -5.352  75.022 114.042  0.00  0.00     0.028 C 
ATOM     12  C   LIG d   1      -3.862  75.086 114.413  0.00  0.00     0.006 C 
ENDBRANCH   8  11
ENDBRANCH   7   8
ENDBRANCH   1   7
BRANCH   6  13
ATOM     13  N   LIG d   1      -3.899  77.495 117.507  0.00  0.00    -0.311 N 
ATOM     14  C   LIG d   1      -3.029  77.787 116.542  0.00  0.00     0.210 C 
ATOM     15  C   LIG d   1      -1.655  77.126 116.689  0.00  0.00     0.109 C 
ATOM     16  O   LIG d   1      -3.254  78.557 115.596  0.00  0.00    -0.276 OA
ATOM     17  H   LIG d   1      -3.622  76.887 118.253  0.00  0.00     0.149 HD
ENDBRANCH   6  13
BRANCH   5  18
ATOM     18  N   LIG d   1      -4.870  79.758 119.315  0.00  0.00     0.381 N 
ATOM     19  H   LIG d   1      -4.045  79.459 119.797  0.00  0.00    -0.090 HD
ATOM     20  H   LIG d   1      -5.411  80.330 119.940  0.00  0.00    -0.090 HD
ATOM     21  H   LIG d   1      -4.620  80.282 118.506  0.00  0.00    -0.090 HD
ENDBRANCH   5  18
BRANCH   3  22
ATOM     22  C   LIG d   1      -9.303  77.994 118.895  0.00  0.00     0.382 C 
ATOM     23  O   LIG d   1     -10.219  78.560 118.252  0.00  0.00    -0.241 OA
ATOM     24  O   LIG d   1      -9.565  77.448 119.984  0.00  0.00    -0.241 OA
ENDBRANCH   3  22
TORSDOF 7
ENDMDL
MODEL 2
REMARK VINA RESULT:      -5.6     14.323     16.008
REMARK  7 active torsions:
REMARK  status: ('A' for Active; 'I' for Inactive)
REMARK    1  A    between atoms: C_2  and  C_3 
REMARK    2  A    between atoms: C_3  and  O_6 
REMARK    3  A    between atoms: C_3  and  C_4 
REMARK    4  A    between atoms: C_7  and  O_6 
REMARK    5  A    between atoms: C_9  and  C_10 
REMARK    6  A    between atoms: N_15  and  C_14 
REMARK    7  A    between atoms: N_20  and  C_19 
REMARK       I    between atoms: C_22  and  N_20 
ROOT
ATOM      1  C   LIG d   1      -5.952  92.705 117.628  0.00  0.00     0.161 C 
ATOM      2  C   LIG d   1      -7.123  93.477 117.564  0.00  0.00     0.016 C 
ATOM      3  C   LIG d   1      -7.346  94.620 118.366  0.00  0.00     0.038 C 
ATOM      4  C   LIG d   1      -6.342  95.159 119.184  0.00  0.00     0.028 C 
ATOM      5  C   LIG d   1      -5.327  94.125 119.658  0.00  0.00    -0.047 C 
ATOM      6  C   LIG d   1      -4.800  93.342 118.434  0.00  0.00     0.091 C 
ENDROOT
BRANCH   1   7
ATOM      7  O   LIG d   1      -5.509  92.377 116.296  0.00  0.00    -0.368 OA
BRANCH   7   8
ATOM      8  C   LIG d   1      -5.563  90.976 115.933  0.00  0.00     0.119 C 
BRANCH   8   9
ATOM      9  C   LIG d   1      -6.415  90.860 114.654  0.00  0.00     0.028 C 
ATOM     10  C   LIG d   1      -6.866  92.232 114.124  0.00  0.00     0.006 C 
ENDBRANCH   8   9
BRANCH   8  11
ATOM     11  C   LIG d   1      -6.306  90.154 116.991  0.00  0.00     0.028 C 
ATOM     12  C   LIG d   1      -7.510  89.392 116.416  0.00  0.00     0.006 C 
ENDBRANCH   8  11
ENDBRANCH   7   8
ENDBRANCH   1   7
BRANCH   6  13
ATOM     13  N   LIG d   1      -3.864  92.253 118.818  0.00  0.00    -0.311 N 
ATOM     14  C   LIG d   1      -2.620  92.157 118.351  0.00  0.00     0.210 C 
ATOM     15  C   LIG d   1      -1.831  90.947 118.859  0.00  0.00     0.109 C 
ATOM     16  O   LIG d   1      -2.085  92.977 117.590  0.00  0.00    -0.276 OA
ATOM     17  H   LIG d   1      -4.206  91.561 119.456  0.00  0.00     0.149 HD
ENDBRANCH   6  13
BRANCH   5  18
ATOM     18  N   LIG d   1      -4.264  94.845 120.385  0.00  0.00     0.381 N 
ATOM     19  H   LIG d   1      -4.652  95.309 121.181  0.00  0.00    -0.090 HD
ATOM     20  H   LIG d   1      -3.868  95.540 119.777  0.00  0.00    -0.090 HD
ATOM     21  H   LIG d   1      -3.556  94.206 120.675  0.00  0.00    -0.090 HD
ENDBRANCH   5  18
BRANCH   3  22
ATOM     22  C   LIG d   1      -8.600  95.213 118.384  0.00  0.00     0.382 C 
ATOM     23  O   LIG d   1      -8.732  96.410 118.031  0.00  0.00    -0.241 OA
ATOM     24  O   LIG d   1      -9.592  94.580 118.791  0.00  0.00    -0.241 OA
ENDBRANCH   3  22
TORSDOF 7
ENDMDL
MODEL 3
REMARK VINA RESULT:      -5.6     13.953     16.167
REMARK  7 active torsions:
REMARK  status: ('A' for Active; 'I' for Inactive)
REMARK    1  A    between atoms: C_2  and  C_3 
REMARK    2  A    between atoms: C_3  and  O_6 
REMARK    3  A    between atoms: C_3  and  C_4 
REMARK    4  A    between atoms: C_7  and  O_6 
REMARK    5  A    between atoms: C_9  and  C_10 
REMARK    6  A    between atoms: N_15  and  C_14 
REMARK    7  A    between atoms: N_20  and  C_19 
REMARK       I    between atoms: C_22  and  N_20 
ROOT
ATOM      1  C   LIG d   1      -5.736  92.626 117.400  0.00  0.00     0.161 C 
ATOM      2  C   LIG d   1      -6.474  91.560 116.858  0.00  0.00     0.016 C 
ATOM      3  C   LIG d   1      -5.899  90.320 116.496  0.00  0.00     0.038 C 
ATOM      4  C   LIG d   1      -4.565  90.007 116.794  0.00  0.00     0.028 C 
ATOM      5  C   LIG d   1      -3.659  91.231 116.880  0.00  0.00    -0.047 C 
ATOM      6  C   LIG d   1      -4.301  92.263 117.835  0.00  0.00     0.091 C 
ENDROOT
BRANCH   1   7
ATOM      7  O   LIG d   1      -6.460  93.212 118.500  0.00  0.00    -0.368 OA
BRANCH   7   8
ATOM      8  C   LIG d   1      -6.720  94.634 118.406  0.00  0.00     0.119 C 
BRANCH   8   9
ATOM      9  C   LIG d   1      -6.583  95.224 119.823  0.00  0.00     0.028 C 
ATOM     10  C   LIG d   1      -5.790  94.306 120.767  0.00  0.00     0.006 C 
ENDBRANCH   8   9
BRANCH   8  11
ATOM     11  C   LIG d   1      -8.168  94.909 117.990  0.00  0.00     0.028 C 
ATOM     12  C   LIG d   1      -9.112  95.076 119.192  0.00  0.00     0.006 C 
ENDBRANCH   8  11
ENDBRANCH   7   8
ENDBRANCH   1   7
BRANCH   6  13
ATOM     13  N   LIG d   1      -3.521  93.526 117.910  0.00  0.00    -0.311 N 
ATOM     14  C   LIG d   1      -2.622  93.777 118.860  0.00  0.00     0.210 C 
ATOM     15  C   LIG d   1      -1.945  95.148 118.764  0.00  0.00     0.109 C 
ATOM     16  O   LIG d   1      -2.296  92.981 119.753  0.00  0.00    -0.276 OA
ATOM     17  H   LIG d   1      -3.700  94.215 117.206  0.00  0.00     0.149 HD
ENDBRANCH   6  13
BRANCH   5  18
ATOM     18  N   LIG d   1      -2.332  90.773 117.331  0.00  0.00     0.381 N 
ATOM     19  H   LIG d   1      -2.123  91.169 118.225  0.00  0.00    -0.090 HD
ATOM     20  H   LIG d   1      -1.639  91.090 116.676  0.00  0.00    -0.090 HD
ATOM     21  H   LIG d   1      -2.315  89.778 117.387  0.00  0.00    -0.090 HD
ENDBRANCH   5  18
BRANCH   3  22
ATOM     22  C   LIG d   1      -6.652  89.393 115.793  0.00  0.00     0.382 C 
ATOM     23  O   LIG d   1      -7.523  88.712 116.387  0.00  0.00    -0.241 OA
ATOM     24  O   LIG d   1      -6.442  89.197 114.581  0.00  0.00    -0.241 OA
ENDBRANCH   3  22
TORSDOF 7
ENDMDL
MODEL 4
REMARK VINA RESULT:      -5.5     13.566     15.902
REMARK  7 active torsions:
REMARK  status: ('A' for Active; 'I' for Inactive)
REMARK    1  A    between atoms: C_2  and  C_3 
REMARK    2  A    between atoms: C_3  and  O_6 
REMARK    3  A    between atoms: C_3  and  C_4 
REMARK    4  A    between atoms: C_7  and  O_6 
REMARK    5  A    between atoms: C_9  and  C_10 
REMARK    6  A    between atoms: N_15  and  C_14 
REMARK    7  A    between atoms: N_20  and  C_19 
REMARK       I    between atoms: C_22  and  N_20 
ROOT
ATOM      1  C   LIG d   1      -5.453  91.300 118.094  0.00  0.00     0.161 C 
ATOM      2  C   LIG d   1      -4.986  90.298 117.228  0.00  0.00     0.016 C 
ATOM      3  C   LIG d   1      -5.424  90.158 115.891  0.00  0.00     0.038 C 
ATOM      4  C   LIG d   1      -6.253  91.110 115.279  0.00  0.00     0.028 C 
ATOM      5  C   LIG d   1      -7.146  91.857 116.264  0.00  0.00    -0.047 C 
ATOM      6  C   LIG d   1      -6.273  92.414 117.411  0.00  0.00     0.091 C 
ENDROOT
BRANCH   1   7
ATOM      7  O   LIG d   1      -4.348  91.868 118.825  0.00  0.00    -0.368 OA
BRANCH   7   8
ATOM      8  C   LIG d   1      -3.643  92.953 118.174  0.00  0.00     0.119 C 
BRANCH   8   9
ATOM      9  C   LIG d   1      -2.186  92.498 117.963  0.00  0.00     0.028 C 
ATOM     10  C   LIG d   1      -1.780  91.366 118.922  0.00  0.00     0.006 C 
ENDBRANCH   8   9
BRANCH   8  11
ATOM     11  C   LIG d   1      -3.556  94.184 119.080  0.00  0.00     0.028 C 
ATOM     12  C   LIG d   1      -4.160  93.943 120.473  0.00  0.00     0.006 C 
ENDBRANCH   8  11
ENDBRANCH   7   8
ENDBRANCH   1   7
BRANCH   6  13
ATOM     13  N   LIG d   1      -7.080  93.087 118.462  0.00  0.00    -0.311 N 
ATOM     14  C   LIG d   1      -7.368  94.387 118.444  0.00  0.00     0.210 C 
ATOM     15  C   LIG d   1      -8.196  94.882 119.635  0.00  0.00     0.109 C 
ATOM     16  O   LIG d   1      -7.045  95.172 117.540  0.00  0.00    -0.276 OA
ATOM     17  H   LIG d   1      -7.409  92.519 119.218  0.00  0.00     0.149 HD
ENDBRANCH   6  13
BRANCH   5  18
ATOM     18  N   LIG d   1      -7.854  92.911 115.512  0.00  0.00     0.381 N 
ATOM     19  H   LIG d   1      -8.833  92.873 115.716  0.00  0.00    -0.090 HD
ATOM     20  H   LIG d   1      -7.731  92.747 114.528  0.00  0.00    -0.090 HD
ATOM     21  H   LIG d   1      -7.491  93.806 115.755  0.00  0.00    -0.090 HD
ENDBRANCH   5  18
BRANCH   3  22
ATOM     22  C   LIG d   1      -5.064  89.034 115.163  0.00  0.00     0.382 C 
ATOM     23  O   LIG d   1      -4.221  88.229 115.628  0.00  0.00    -0.241 OA
ATOM     24  O   LIG d   1      -5.538  88.837 114.028  0.00  0.00    -0.241 OA
ENDBRANCH   3  22
TORSDOF 7
ENDMDL
MODEL 5
REMARK VINA RESULT:      -5.5      2.245      4.828
REMARK  7 active torsions:
REMARK  status: ('A' for Active; 'I' for Inactive)
REMARK    1  A    between atoms: C_2  and  C_3 
REMARK    2  A    between atoms: C_3  and  O_6 
REMARK    3  A    between atoms: C_3  and  C_4 
REMARK    4  A    between atoms: C_7  and  O_6 
REMARK    5  A    between atoms: C_9  and  C_10 
REMARK    6  A    between atoms: N_15  and  C_14 
REMARK    7  A    between atoms: N_20  and  C_19 
REMARK       I    between atoms: C_22  and  N_20 
ROOT
ATOM      1  C   LIG d   1      -4.664  77.109 116.906  0.00  0.00     0.161 C 
ATOM      2  C   LIG d   1      -4.696  75.860 116.262  0.00  0.00     0.016 C 
ATOM      3  C   LIG d   1      -5.883  75.120 116.058  0.00  0.00     0.038 C 
ATOM      4  C   LIG d   1      -7.147  75.651 116.351  0.00  0.00     0.028 C 
ATOM      5  C   LIG d   1      -7.124  76.695 117.462  0.00  0.00    -0.047 C 
ATOM      6  C   LIG d   1      -6.047  77.754 117.133  0.00  0.00     0.091 C 
ENDROOT
BRANCH   1   7
ATOM      7  O   LIG d   1      -3.804  78.010 116.182  0.00  0.00    -0.368 OA
BRANCH   7   8
ATOM      8  C   LIG d   1      -2.620  77.422 115.588  0.00  0.00     0.119 C 
BRANCH   8   9
ATOM      9  C   LIG d   1      -1.503  77.459 116.649  0.00  0.00     0.028 C 
ATOM     10  C   LIG d   1      -0.125  77.109 116.062  0.00  0.00     0.006 C 
ENDBRANCH   8   9
BRANCH   8  11
ATOM     11  C   LIG d   1      -2.101  78.271 114.423  0.00  0.00     0.028 C 
ATOM     12  C   LIG d   1      -2.319  77.603 113.056  0.00  0.00     0.006 C 
ENDBRANCH   8  11
ENDBRANCH   7   8
ENDBRANCH   1   7
BRANCH   6  13
ATOM     13  N   LIG d   1      -5.900  78.767 118.211  0.00  0.00    -0.311 N 
ATOM     14  C   LIG d   1      -6.502  79.954 118.189  0.00  0.00     0.210 C 
ATOM     15  C   LIG d   1      -6.199  80.855 119.390  0.00  0.00     0.109 C 
ATOM     16  O   LIG d   1      -7.284  80.334 117.304  0.00  0.00    -0.276 OA
ATOM     17  H   LIG d   1      -5.308  78.528 118.982  0.00  0.00     0.149 HD
ENDBRANCH   6  13
BRANCH   5  18
ATOM     18  N   LIG d   1      -8.481  77.263 117.569  0.00  0.00     0.381 N 
ATOM     19  H   LIG d   1      -8.459  78.088 118.134  0.00  0.00    -0.090 HD
ATOM     20  H   LIG d   1      -9.080  76.591 118.016  0.00  0.00    -0.090 HD
ATOM     21  H   LIG d   1      -8.832  77.481 116.663  0.00  0.00    -0.090 HD
ENDBRANCH   5  18
BRANCH   3  22
ATOM     22  C   LIG d   1      -5.807  73.816 115.591  0.00  0.00     0.382 C 
ATOM     23  O   LIG d   1      -6.285  72.878 116.273  0.00  0.00    -0.241 OA
ATOM     24  O   LIG d   1      -5.229  73.562 114.517  0.00  0.00    -0.241 OA
ENDBRANCH   3  22
TORSDOF 7
ENDMDL
MODEL 6
REMARK VINA RESULT:      -5.4      2.914      6.053
REMARK  7 active torsions:
REMARK  status: ('A' for Active; 'I' for Inactive)
REMARK    1  A    between atoms: C_2  and  C_3 
REMARK    2  A    between atoms: C_3  and  O_6 
REMARK    3  A    between atoms: C_3  and  C_4 
REMARK    4  A    between atoms: C_7  and  O_6 
REMARK    5  A    between atoms: C_9  and  C_10 
REMARK    6  A    between atoms: N_15  and  C_14 
REMARK    7  A    between atoms: N_20  and  C_19 
REMARK       I    between atoms: C_22  and  N_20 
ROOT
ATOM      1  C   LIG d   1      -3.017  77.079 117.103  0.00  0.00     0.161 C 
ATOM      2  C   LIG d   1      -2.130  77.828 117.894  0.00  0.00     0.016 C 
ATOM      3  C   LIG d   1      -0.723  77.732 117.789  0.00  0.00     0.038 C 
ATOM      4  C   LIG d   1      -0.104  76.986 116.775  0.00  0.00     0.028 C 
ATOM      5  C   LIG d   1      -0.952  75.820 116.277  0.00  0.00    -0.047 C 
ATOM      6  C   LIG d   1      -2.361  76.343 115.916  0.00  0.00     0.091 C 
ENDROOT
BRANCH   1   7
ATOM      7  O   LIG d   1      -4.089  77.922 116.639  0.00  0.00    -0.368 OA
BRANCH   7   8
ATOM      8  C   LIG d   1      -5.312  77.885 117.415  0.00  0.00     0.119 C 
BRANCH   8   9
ATOM      9  C   LIG d   1      -6.313  76.990 116.660  0.00  0.00     0.028 C 
ATOM     10  C   LIG d   1      -6.457  75.599 117.302  0.00  0.00     0.006 C 
ENDBRANCH   8   9
BRANCH   8  11
ATOM     11  C   LIG d   1      -5.972  79.265 117.482  0.00  0.00     0.028 C 
ATOM     12  C   LIG d   1      -7.422  79.208 117.990  0.00  0.00     0.006 C 
ENDBRANCH   8  11
ENDBRANCH   7   8
ENDBRANCH   1   7
BRANCH   6  13
ATOM     13  N   LIG d   1      -3.281  75.252 115.499  0.00  0.00    -0.311 N 
ATOM     14  C   LIG d   1      -3.985  75.278 114.369  0.00  0.00     0.210 C 
ATOM     15  C   LIG d   1      -4.887  74.062 114.141  0.00  0.00     0.109 C 
ATOM     16  O   LIG d   1      -3.923  76.178 113.518  0.00  0.00    -0.276 OA
ATOM     17  H   LIG d   1      -3.368  74.468 116.116  0.00  0.00     0.149 HD
ENDBRANCH   6  13
BRANCH   5  18
ATOM     18  N   LIG d   1      -0.248  75.215 115.131  0.00  0.00     0.381 N 
ATOM     19  H   LIG d   1      -0.314  74.218 115.182  0.00  0.00    -0.090 HD
ATOM     20  H   LIG d   1       0.723  75.470 115.174  0.00  0.00    -0.090 HD
ATOM     21  H   LIG d   1      -0.647  75.538 114.277  0.00  0.00    -0.090 HD
ENDBRANCH   5  18
BRANCH   3  22
ATOM     22  C   LIG d   1       0.080  78.356 118.731  0.00  0.00     0.382 C 
ATOM     23  O   LIG d   1      -0.018  79.592 118.919  0.00  0.00    -0.241 OA
ATOM     24  O   LIG d   1       0.933  77.705 119.365  0.00  0.00    -0.241 OA
ENDBRANCH   3  22
TORSDOF 7
ENDMDL
MODEL 7
REMARK VINA RESULT:      -5.4     12.901     14.810
REMARK  7 active torsions:
REMARK  status: ('A' for Active; 'I' for Inactive)
REMARK    1  A    between atoms: C_2  and  C_3 
REMARK    2  A    between atoms: C_3  and  O_6 
REMARK    3  A    between atoms: C_3  and  C_4 
REMARK    4  A    between atoms: C_7  and  O_6 
REMARK    5  A    between atoms: C_9  and  C_10 
REMARK    6  A    between atoms: N_15  and  C_14 
REMARK    7  A    between atoms: N_20  and  C_19 
REMARK       I    between atoms: C_22  and  N_20 
ROOT
ATOM      1  C   LIG d   1      -3.821  90.988 117.656  0.00  0.00     0.161 C 
ATOM      2  C   LIG d   1      -4.463  90.074 116.803  0.00  0.00     0.016 C 
ATOM      3  C   LIG d   1      -5.667  90.362 116.119  0.00  0.00     0.038 C 
ATOM      4  C   LIG d   1      -6.233  91.646 116.124  0.00  0.00     0.028 C 
ATOM      5  C   LIG d   1      -5.895  92.452 117.373  0.00  0.00    -0.047 C 
ATOM      6  C   LIG d   1      -4.365  92.430 117.586  0.00  0.00     0.091 C 
ENDROOT
BRANCH   1   7
ATOM      7  O   LIG d   1      -2.402  90.974 117.406  0.00  0.00    -0.368 OA
BRANCH   7   8
ATOM      8  C   LIG d   1      -1.578  90.375 118.437  0.00  0.00     0.119 C 
BRANCH   8   9
ATOM      9  C   LIG d   1      -1.133  88.991 117.927  0.00  0.00     0.028 C 
ATOM     10  C   LIG d   1      -1.955  87.846 118.543  0.00  0.00     0.006 C 
ENDBRANCH   8   9
BRANCH   8  11
ATOM     11  C   LIG d   1      -2.389  90.098 119.706  0.00  0.00     0.028 C 
ATOM     12  C   LIG d   1      -1.902  90.914 120.914  0.00  0.00     0.006 C 
ENDBRANCH   8  11
ENDBRANCH   7   8
ENDBRANCH   1   7
BRANCH   6  13
ATOM     13  N   LIG d   1      -3.956  93.126 118.834  0.00  0.00    -0.311 N 
ATOM     14  C   LIG d   1      -2.933  93.976 118.898  0.00  0.00     0.210 C 
ATOM     15  C   LIG d   1      -2.669  94.568 120.286  0.00  0.00     0.109 C 
ATOM     16  O   LIG d   1      -2.239  94.321 117.930  0.00  0.00    -0.276 OA
ATOM     17  H   LIG d   1      -4.484  92.928 119.661  0.00  0.00     0.149 HD
ENDBRANCH   6  13
BRANCH   5  18
ATOM     18  N   LIG d   1      -6.433  93.813 117.183  0.00  0.00     0.381 N 
ATOM     19  H   LIG d   1      -5.693  94.438 116.933  0.00  0.00    -0.090 HD
ATOM     20  H   LIG d   1      -6.833  94.128 118.050  0.00  0.00    -0.090 HD
ATOM     21  H   LIG d   1      -7.129  93.809 116.470  0.00  0.00    -0.090 HD
ENDBRANCH   5  18
BRANCH   3  22
ATOM     22  C   LIG d   1      -6.338  89.348 115.452  0.00  0.00     0.382 C 
ATOM     23  O   LIG d   1      -7.216  88.680 116.049  0.00  0.00    -0.241 OA
ATOM     24  O   LIG d   1      -6.045  89.065 114.275  0.00  0.00    -0.241 OA
ENDBRANCH   3  22
TORSDOF 7
ENDMDL
MODEL 8
REMARK VINA RESULT:      -5.3     13.688     15.484
REMARK  7 active torsions:
REMARK  status: ('A' for Active; 'I' for Inactive)
REMARK    1  A    between atoms: C_2  and  C_3 
REMARK    2  A    between atoms: C_3  and  O_6 
REMARK    3  A    between atoms: C_3  and  C_4 
REMARK    4  A    between atoms: C_7  and  O_6 
REMARK    5  A    between atoms: C_9  and  C_10 
REMARK    6  A    between atoms: N_15  and  C_14 
REMARK    7  A    between atoms: N_20  and  C_19 
REMARK       I    between atoms: C_22  and  N_20 
ROOT
ATOM      1  C   LIG d   1      -5.096  92.171 117.794  0.00  0.00     0.161 C 
ATOM      2  C   LIG d   1      -5.349  93.300 118.591  0.00  0.00     0.016 C 
ATOM      3  C   LIG d   1      -6.408  94.203 118.347  0.00  0.00     0.038 C 
ATOM      4  C   LIG d   1      -7.386  93.954 117.372  0.00  0.00     0.028 C 
ATOM      5  C   LIG d   1      -6.884  93.092 116.218  0.00  0.00    -0.047 C 
ATOM      6  C   LIG d   1      -6.218  91.821 116.793  0.00  0.00     0.091 C 
ENDROOT
BRANCH   1   7
ATOM      7  O   LIG d   1      -4.802  91.036 118.633  0.00  0.00    -0.368 OA
BRANCH   7   8
ATOM      8  C   LIG d   1      -3.422  90.595 118.649  0.00  0.00     0.119 C 
BRANCH   8   9
ATOM      9  C   LIG d   1      -2.626  91.533 117.720  0.00  0.00     0.028 C 
ATOM     10  C   LIG d   1      -1.332  92.047 118.373  0.00  0.00     0.006 C 
ENDBRANCH   8   9
BRANCH   8  11
ATOM     11  C   LIG d   1      -3.276  89.199 118.037  0.00  0.00     0.028 C 
ATOM     12  C   LIG d   1      -2.233  88.336 118.765  0.00  0.00     0.006 C 
ENDBRANCH   8  11
ENDBRANCH   7   8
ENDBRANCH   1   7
BRANCH   6  13
ATOM     13  N   LIG d   1      -5.625  90.963 115.735  0.00  0.00    -0.311 N 
ATOM     14  C   LIG d   1      -5.901  89.667 115.602  0.00  0.00     0.210 C 
ATOM     15  C   LIG d   1      -5.166  88.964 114.456  0.00  0.00     0.109 C 
ATOM     16  O   LIG d   1      -6.708  89.040 116.304  0.00  0.00    -0.276 OA
ATOM     17  H   LIG d   1      -4.983  91.398 115.102  0.00  0.00     0.149 HD
ENDBRANCH   6  13
BRANCH   5  18
ATOM     18  N   LIG d   1      -8.038  92.796 115.348  0.00  0.00     0.381 N 
ATOM     19  H   LIG d   1      -7.768  92.148 114.636  0.00  0.00    -0.090 HD
ATOM     20  H   LIG d   1      -8.337  93.647 114.904  0.00  0.00    -0.090 HD
ATOM     21  H   LIG d   1      -8.784  92.416 115.889  0.00  0.00    -0.090 HD
ENDBRANCH   5  18
BRANCH   3  22
ATOM     22  C   LIG d   1      -6.475  95.392 119.057  0.00  0.00     0.382 C 
ATOM     23  O   LIG d   1      -6.116  95.426 120.259  0.00  0.00    -0.241 OA
ATOM     24  O   LIG d   1      -6.931  96.422 118.524  0.00  0.00    -0.241 OA
ENDBRANCH   3  22
TORSDOF 7
ENDMDL
MODEL 9
REMARK VINA RESULT:      -5.2      2.095      5.225
REMARK  7 active torsions:
REMARK  status: ('A' for Active; 'I' for Inactive)
REMARK    1  A    between atoms: C_2  and  C_3 
REMARK    2  A    between atoms: C_3  and  O_6 
REMARK    3  A    between atoms: C_3  and  C_4 
REMARK    4  A    between atoms: C_7  and  O_6 
REMARK    5  A    between atoms: C_9  and  C_10 
REMARK    6  A    between atoms: N_15  and  C_14 
REMARK    7  A    between atoms: N_20  and  C_19 
REMARK       I    between atoms: C_22  and  N_20 
ROOT
ATOM      1  C   LIG d   1      -3.811  77.376 116.107  0.00  0.00     0.161 C 
ATOM      2  C   LIG d   1      -2.578  76.704 116.075  0.00  0.00     0.016 C 
ATOM      3  C   LIG d   1      -1.661  76.710 117.151  0.00  0.00     0.038 C 
ATOM      4  C   LIG d   1      -1.983  77.266 118.397  0.00  0.00     0.028 C 
ATOM      5  C   LIG d   1      -3.010  78.390 118.311  0.00  0.00    -0.047 C 
ATOM      6  C   LIG d   1      -4.229  77.896 117.499  0.00  0.00     0.091 C 
ENDROOT
BRANCH   1   7
ATOM      7  O   LIG d   1      -4.842  76.532 115.557  0.00  0.00    -0.368 OA
BRANCH   7   8
ATOM      8  C   LIG d   1      -4.955  75.207 116.133  0.00  0.00     0.119 C 
BRANCH   8   9
ATOM      9  C   LIG d   1      -5.003  74.199 114.968  0.00  0.00     0.028 C 
ATOM     10  C   LIG d   1      -5.658  72.868 115.371  0.00  0.00     0.006 C 
ENDBRANCH   8   9
BRANCH   8  11
ATOM     11  C   LIG d   1      -6.284  75.033 116.874  0.00  0.00     0.028 C 
ATOM     12  C   LIG d   1      -7.353  76.042 116.426  0.00  0.00     0.006 C 
ENDBRANCH   8  11
ENDBRANCH   7   8
ENDBRANCH   1   7
BRANCH   6  13
ATOM     13  N   LIG d   1      -5.245  78.961 117.295  0.00  0.00    -0.311 N 
ATOM     14  C   LIG d   1      -6.283  79.149 118.107  0.00  0.00     0.210 C 
ATOM     15  C   LIG d   1      -7.222  80.291 117.704  0.00  0.00     0.109 C 
ATOM     16  O   LIG d   1      -6.499  78.498 119.141  0.00  0.00    -0.276 OA
ATOM     17  H   LIG d   1      -5.129  79.555 116.497  0.00  0.00     0.149 HD
ENDBRANCH   6  13
BRANCH   5  18
ATOM     18  N   LIG d   1      -3.356  78.784 119.690  0.00  0.00     0.381 N 
ATOM     19  H   LIG d   1      -2.527  78.832 120.247  0.00  0.00    -0.090 HD
ATOM     20  H   LIG d   1      -3.962  78.086 120.085  0.00  0.00    -0.090 HD
ATOM     21  H   LIG d   1      -3.814  79.669 119.687  0.00  0.00    -0.090 HD
ENDBRANCH   5  18
BRANCH   3  22
ATOM     22  C   LIG d   1      -0.389  76.188 116.972  0.00  0.00     0.382 C 
ATOM     23  O   LIG d   1       0.351  76.637 116.063  0.00  0.00    -0.241 OA
ATOM     24  O   LIG d   1       0.012  75.244 117.678  0.00  0.00    -0.241 OA
ENDBRANCH   3  22
TORSDOF 7
ENDMDL
