MODEL 1
REMARK VINA RESULT:      -5.7      0.000      0.000
REMARK  7 active torsions:
REMARK  status: ('A' for Active; 'I' for Inactive)
REMARK    1  A    between atoms: C_2  and  C_3 
REMARK    2  A    between atoms: C_3  and  O_6 
REMARK    3  A    between atoms: C_3  and  C_4 
REMARK    4  A    between atoms: C_7  and  O_6 
REMARK    5  A    between atoms: C_9  and  C_10 
REMARK    6  A    between atoms: N_15  and  C_14 
REMARK    7  A    between atoms: N_20  and  C_19 
REMARK       I    between atoms: C_22  and  N_20 
ROOT
ATOM      1  C   LIG d   1      -5.693  91.567 117.678  0.00  0.00     0.161 C 
ATOM      2  C   LIG d   1      -6.104  90.955 116.482  0.00  0.00     0.016 C 
ATOM      3  C   LIG d   1      -6.899  91.603 115.509  0.00  0.00     0.038 C 
ATOM      4  C   LIG d   1      -7.213  92.968 115.597  0.00  0.00     0.028 C 
ATOM      5  C   LIG d   1      -7.245  93.491 117.029  0.00  0.00    -0.047 C 
ATOM      6  C   LIG d   1      -5.932  93.091 117.739  0.00  0.00     0.091 C 
ENDROOT
BRANCH   1   7
ATOM      7  O   LIG d   1      -4.306  91.268 117.928  0.00  0.00    -0.368 OA
BRANCH   7   8
ATOM      8  C   LIG d   1      -4.027  90.484 119.115  0.00  0.00     0.119 C 
BRANCH   8   9
ATOM      9  C   LIG d   1      -3.177  91.358 120.057  0.00  0.00     0.028 C 
ATOM     10  C   LIG d   1      -2.373  92.428 119.300  0.00  0.00     0.006 C 
ENDBRANCH   8   9
BRANCH   8  11
ATOM     11  C   LIG d   1      -3.153  89.270 118.788  0.00  0.00     0.028 C 
ATOM     12  C   LIG d   1      -2.985  89.046 117.277  0.00  0.00     0.006 C 
ENDBRANCH   8  11
ENDBRANCH   7   8
ENDBRANCH   1   7
BRANCH   6  13
ATOM     13  N   LIG d   1      -5.918  93.490 119.171  0.00  0.00    -0.311 N 
ATOM     14  C   LIG d   1      -5.375  94.625 119.610  0.00  0.00     0.210 C 
ATOM     15  C   LIG d   1      -5.450  94.833 121.125  0.00  0.00     0.109 C 
ATOM     16  O   LIG d   1      -4.867  95.493 118.884  0.00  0.00    -0.276 OA
ATOM     17  H   LIG d   1      -6.336  92.859 119.825  0.00  0.00     0.149 HD
ENDBRANCH   6  13
BRANCH   5  18
ATOM     18  N   LIG d   1      -7.447  94.951 116.966  0.00  0.00     0.381 N 
ATOM     19  H   LIG d   1      -8.379  95.151 116.662  0.00  0.00    -0.090 HD
ATOM     20  H   LIG d   1      -6.806  95.339 116.297  0.00  0.00    -0.090 HD
ATOM     21  H   LIG d   1      -7.289  95.356 117.862  0.00  0.00    -0.090 HD
ENDBRANCH   5  18
BRANCH   3  22
ATOM     22  C   LIG d   1      -7.423  90.874 114.452  0.00  0.00     0.382 C 
ATOM     23  O   LIG d   1      -7.042  89.695 114.255  0.00  0.00    -0.241 OA
ATOM     24  O   LIG d   1      -8.238  91.395 113.667  0.00  0.00    -0.241 OA
ENDBRANCH   3  22
TORSDOF 7
ENDMDL
MODEL 2
REMARK VINA RESULT:      -5.5     32.640     34.345
REMARK  7 active torsions:
REMARK  status: ('A' for Active; 'I' for Inactive)
REMARK    1  A    between atoms: C_2  and  C_3 
REMARK    2  A    between atoms: C_3  and  O_6 
REMARK    3  A    between atoms: C_3  and  C_4 
REMARK    4  A    between atoms: C_7  and  O_6 
REMARK    5  A    between atoms: C_9  and  C_10 
REMARK    6  A    between atoms: N_15  and  C_14 
REMARK    7  A    between atoms: N_20  and  C_19 
REMARK       I    between atoms: C_22  and  N_20 
ROOT
ATOM      1  C   LIG d   1       0.259  58.944 119.552  0.00  0.00     0.161 C 
ATOM      2  C   LIG d   1      -1.052  58.519 119.279  0.00  0.00     0.016 C 
ATOM      3  C   LIG d   1      -1.686  58.706 118.029  0.00  0.00     0.038 C 
ATOM      4  C   LIG d   1      -0.994  59.198 116.913  0.00  0.00     0.028 C 
ATOM      5  C   LIG d   1       0.176  60.105 117.277  0.00  0.00    -0.047 C 
ATOM      6  C   LIG d   1       1.067  59.382 118.313  0.00  0.00     0.091 C 
ENDROOT
BRANCH   1   7
ATOM      7  O   LIG d   1       0.965  57.916 120.273  0.00  0.00    -0.368 OA
BRANCH   7   8
ATOM      8  C   LIG d   1       1.614  56.902 119.466  0.00  0.00     0.119 C 
BRANCH   8   9
ATOM      9  C   LIG d   1       0.867  55.575 119.702  0.00  0.00     0.028 C 
ATOM     10  C   LIG d   1       0.226  55.026 118.416  0.00  0.00     0.006 C 
ENDBRANCH   8   9
BRANCH   8  11
ATOM     11  C   LIG d   1       3.049  56.648 119.937  0.00  0.00     0.028 C 
ATOM     12  C   LIG d   1       4.034  56.461 118.772  0.00  0.00     0.006 C 
ENDBRANCH   8  11
ENDBRANCH   7   8
ENDBRANCH   1   7
BRANCH   6  13
ATOM     13  N   LIG d   1       2.190  60.234 118.787  0.00  0.00    -0.311 N 
ATOM     14  C   LIG d   1       3.394  60.243 118.217  0.00  0.00     0.210 C 
ATOM     15  C   LIG d   1       4.413  61.179 118.875  0.00  0.00     0.109 C 
ATOM     16  O   LIG d   1       3.705  59.589 117.210  0.00  0.00    -0.276 OA
ATOM     17  H   LIG d   1       2.015  60.819 119.580  0.00  0.00     0.149 HD
ENDBRANCH   6  13
BRANCH   5  18
ATOM     18  N   LIG d   1       0.890  60.434 116.029  0.00  0.00     0.381 N 
ATOM     19  H   LIG d   1       1.333  59.613 115.666  0.00  0.00    -0.090 HD
ATOM     20  H   LIG d   1       1.603  61.113 116.231  0.00  0.00    -0.090 HD
ATOM     21  H   LIG d   1       0.252  60.801 115.358  0.00  0.00    -0.090 HD
ENDBRANCH   5  18
BRANCH   3  22
ATOM     22  C   LIG d   1      -3.040  58.435 117.899  0.00  0.00     0.382 C 
ATOM     23  O   LIG d   1      -3.820  59.325 117.481  0.00  0.00    -0.241 OA
ATOM     24  O   LIG d   1      -3.498  57.326 118.234  0.00  0.00    -0.241 OA
ENDBRANCH   3  22
TORSDOF 7
ENDMDL
MODEL 3
REMARK VINA RESULT:      -5.5     31.898     34.227
REMARK  7 active torsions:
REMARK  status: ('A' for Active; 'I' for Inactive)
REMARK    1  A    between atoms: C_2  and  C_3 
REMARK    2  A    between atoms: C_3  and  O_6 
REMARK    3  A    between atoms: C_3  and  C_4 
REMARK    4  A    between atoms: C_7  and  O_6 
REMARK    5  A    between atoms: C_9  and  C_10 
REMARK    6  A    between atoms: N_15  and  C_14 
REMARK    7  A    between atoms: N_20  and  C_19 
REMARK       I    between atoms: C_22  and  N_20 
ROOT
ATOM      1  C   LIG d   1       0.971  58.308 118.443  0.00  0.00     0.161 C 
ATOM      2  C   LIG d   1       0.961  59.107 117.287  0.00  0.00     0.016 C 
ATOM      3  C   LIG d   1      -0.182  59.286 116.475  0.00  0.00     0.038 C 
ATOM      4  C   LIG d   1      -1.442  58.794 116.849  0.00  0.00     0.028 C 
ATOM      5  C   LIG d   1      -1.370  57.561 117.742  0.00  0.00    -0.047 C 
ATOM      6  C   LIG d   1      -0.422  57.854 118.927  0.00  0.00     0.091 C 
ENDROOT
BRANCH   1   7
ATOM      7  O   LIG d   1       1.673  58.989 119.502  0.00  0.00    -0.368 OA
BRANCH   7   8
ATOM      8  C   LIG d   1       1.819  60.422 119.350  0.00  0.00     0.119 C 
BRANCH   8   9
ATOM      9  C   LIG d   1       3.265  60.784 119.744  0.00  0.00     0.028 C 
ATOM     10  C   LIG d   1       4.249  60.624 118.573  0.00  0.00     0.006 C 
ENDBRANCH   8   9
BRANCH   8  11
ATOM     11  C   LIG d   1       0.928  61.181 120.338  0.00  0.00     0.028 C 
ATOM     12  C   LIG d   1      -0.477  61.458 119.781  0.00  0.00     0.006 C 
ENDBRANCH   8  11
ENDBRANCH   7   8
ENDBRANCH   1   7
BRANCH   6  13
ATOM     13  N   LIG d   1      -0.229  56.671 119.806  0.00  0.00    -0.311 N 
ATOM     14  C   LIG d   1       0.279  55.516 119.378  0.00  0.00     0.210 C 
ATOM     15  C   LIG d   1       0.374  54.418 120.443  0.00  0.00     0.109 C 
ATOM     16  O   LIG d   1       0.691  55.307 118.227  0.00  0.00    -0.276 OA
ATOM     17  H   LIG d   1      -0.507  56.763 120.763  0.00  0.00     0.149 HD
ENDBRANCH   6  13
BRANCH   5  18
ATOM     18  N   LIG d   1      -2.745  57.238 118.168  0.00  0.00     0.381 N 
ATOM     19  H   LIG d   1      -3.394  57.528 117.465  0.00  0.00    -0.090 HD
ATOM     20  H   LIG d   1      -2.950  57.742 119.013  0.00  0.00    -0.090 HD
ATOM     21  H   LIG d   1      -2.832  56.259 118.327  0.00  0.00    -0.090 HD
ENDBRANCH   5  18
BRANCH   3  22
ATOM     22  C   LIG d   1      -0.063  59.929 115.252  0.00  0.00     0.382 C 
ATOM     23  O   LIG d   1      -1.042  60.547 114.771  0.00  0.00    -0.241 OA
ATOM     24  O   LIG d   1       0.999  59.861 114.604  0.00  0.00    -0.241 OA
ENDBRANCH   3  22
TORSDOF 7
ENDMDL
MODEL 4
REMARK VINA RESULT:      -5.1     13.130     15.375
REMARK  7 active torsions:
REMARK  status: ('A' for Active; 'I' for Inactive)
REMARK    1  A    between atoms: C_2  and  C_3 
REMARK    2  A    between atoms: C_3  and  O_6 
REMARK    3  A    between atoms: C_3  and  C_4 
REMARK    4  A    between atoms: C_7  and  O_6 
REMARK    5  A    between atoms: C_9  and  C_10 
REMARK    6  A    between atoms: N_15  and  C_14 
REMARK    7  A    between atoms: N_20  and  C_19 
REMARK       I    between atoms: C_22  and  N_20 
ROOT
ATOM      1  C   LIG d   1      -6.578  77.633 117.133  0.00  0.00     0.161 C 
ATOM      2  C   LIG d   1      -5.627  77.285 116.159  0.00  0.00     0.016 C 
ATOM      3  C   LIG d   1      -5.563  76.008 115.556  0.00  0.00     0.038 C 
ATOM      4  C   LIG d   1      -6.546  75.032 115.778  0.00  0.00     0.028 C 
ATOM      5  C   LIG d   1      -7.234  75.163 117.132  0.00  0.00    -0.047 C 
ATOM      6  C   LIG d   1      -7.728  76.618 117.306  0.00  0.00     0.091 C 
ENDROOT
BRANCH   1   7
ATOM      7  O   LIG d   1      -7.106  78.944 116.854  0.00  0.00    -0.368 OA
BRANCH   7   8
ATOM      8  C   LIG d   1      -6.370  80.060 117.415  0.00  0.00     0.119 C 
BRANCH   8   9
ATOM      9  C   LIG d   1      -6.041  79.708 118.879  0.00  0.00     0.028 C 
ATOM     10  C   LIG d   1      -5.023  80.678 119.500  0.00  0.00     0.006 C 
ENDBRANCH   8   9
BRANCH   8  11
ATOM     11  C   LIG d   1      -7.238  81.320 117.486  0.00  0.00     0.028 C 
ATOM     12  C   LIG d   1      -8.735  81.005 117.629  0.00  0.00     0.006 C 
ENDBRANCH   8  11
ENDBRANCH   7   8
ENDBRANCH   1   7
BRANCH   6  13
ATOM     13  N   LIG d   1      -8.338  76.853 118.641  0.00  0.00    -0.311 N 
ATOM     14  C   LIG d   1      -9.560  77.356 118.809  0.00  0.00     0.210 C 
ATOM     15  C   LIG d   1      -9.990  77.537 120.268  0.00  0.00     0.109 C 
ATOM     16  O   LIG d   1     -10.342  77.638 117.889  0.00  0.00    -0.276 OA
ATOM     17  H   LIG d   1      -7.785  76.623 119.443  0.00  0.00     0.149 HD
ENDBRANCH   6  13
BRANCH   5  18
ATOM     18  N   LIG d   1      -8.327  74.173 117.174  0.00  0.00     0.381 N 
ATOM     19  H   LIG d   1      -8.082  73.424 117.790  0.00  0.00    -0.090 HD
ATOM     20  H   LIG d   1      -8.458  73.794 116.253  0.00  0.00    -0.090 HD
ATOM     21  H   LIG d   1      -9.168  74.607 117.486  0.00  0.00    -0.090 HD
ENDBRANCH   5  18
BRANCH   3  22
ATOM     22  C   LIG d   1      -4.482  75.682 114.750  0.00  0.00     0.382 C 
ATOM     23  O   LIG d   1      -3.397  75.326 115.270  0.00  0.00    -0.241 OA
ATOM     24  O   LIG d   1      -4.565  75.783 113.512  0.00  0.00    -0.241 OA
ENDBRANCH   3  22
TORSDOF 7
ENDMDL
MODEL 5
REMARK VINA RESULT:      -5.1      2.071      4.273
REMARK  7 active torsions:
REMARK  status: ('A' for Active; 'I' for Inactive)
REMARK    1  A    between atoms: C_2  and  C_3 
REMARK    2  A    between atoms: C_3  and  O_6 
REMARK    3  A    between atoms: C_3  and  C_4 
REMARK    4  A    between atoms: C_7  and  O_6 
REMARK    5  A    between atoms: C_9  and  C_10 
REMARK    6  A    between atoms: N_15  and  C_14 
REMARK    7  A    between atoms: N_20  and  C_19 
REMARK       I    between atoms: C_22  and  N_20 
ROOT
ATOM      1  C   LIG d   1      -6.086  93.291 117.437  0.00  0.00     0.161 C 
ATOM      2  C   LIG d   1      -6.960  92.656 116.538  0.00  0.00     0.016 C 
ATOM      3  C   LIG d   1      -6.861  91.289 116.191  0.00  0.00     0.038 C 
ATOM      4  C   LIG d   1      -5.967  90.422 116.837  0.00  0.00     0.028 C 
ATOM      5  C   LIG d   1      -4.730  91.126 117.383  0.00  0.00    -0.047 C 
ATOM      6  C   LIG d   1      -5.175  92.336 118.236  0.00  0.00     0.091 C 
ENDROOT
BRANCH   1   7
ATOM      7  O   LIG d   1      -6.835  94.136 118.332  0.00  0.00    -0.368 OA
BRANCH   7   8
ATOM      8  C   LIG d   1      -8.265  94.197 118.105  0.00  0.00     0.119 C 
BRANCH   8   9
ATOM      9  C   LIG d   1      -8.630  95.673 117.849  0.00  0.00     0.028 C 
ATOM     10  C   LIG d   1      -7.480  96.631 118.202  0.00  0.00     0.006 C 
ENDBRANCH   8   9
BRANCH   8  11
ATOM     11  C   LIG d   1      -9.046  93.798 119.359  0.00  0.00     0.028 C 
ATOM     12  C   LIG d   1      -8.134  93.355 120.514  0.00  0.00     0.006 C 
ENDBRANCH   8  11
ENDBRANCH   7   8
ENDBRANCH   1   7
BRANCH   6  13
ATOM     13  N   LIG d   1      -4.024  93.129 118.739  0.00  0.00    -0.311 N 
ATOM     14  C   LIG d   1      -3.461  92.930 119.930  0.00  0.00     0.210 C 
ATOM     15  C   LIG d   1      -2.299  93.872 120.261  0.00  0.00     0.109 C 
ATOM     16  O   LIG d   1      -3.792  92.042 120.730  0.00  0.00    -0.276 OA
ATOM     17  H   LIG d   1      -3.671  93.851 118.142  0.00  0.00     0.149 HD
ENDBRANCH   6  13
BRANCH   5  18
ATOM     18  N   LIG d   1      -3.954  90.133 118.150  0.00  0.00     0.381 N 
ATOM     19  H   LIG d   1      -3.813  90.461 119.085  0.00  0.00    -0.090 HD
ATOM     20  H   LIG d   1      -3.055  90.018 117.717  0.00  0.00    -0.090 HD
ATOM     21  H   LIG d   1      -4.437  89.261 118.165  0.00  0.00    -0.090 HD
ENDBRANCH   5  18
BRANCH   3  22
ATOM     22  C   LIG d   1      -7.635  90.785 115.156  0.00  0.00     0.382 C 
ATOM     23  O   LIG d   1      -7.957  89.573 115.148  0.00  0.00    -0.241 OA
ATOM     24  O   LIG d   1      -7.978  91.518 114.209  0.00  0.00    -0.241 OA
ENDBRANCH   3  22
TORSDOF 7
ENDMDL
MODEL 6
REMARK VINA RESULT:      -5.1     11.994     14.212
REMARK  7 active torsions:
REMARK  status: ('A' for Active; 'I' for Inactive)
REMARK    1  A    between atoms: C_2  and  C_3 
REMARK    2  A    between atoms: C_3  and  O_6 
REMARK    3  A    between atoms: C_3  and  C_4 
REMARK    4  A    between atoms: C_7  and  O_6 
REMARK    5  A    between atoms: C_9  and  C_10 
REMARK    6  A    between atoms: N_15  and  C_14 
REMARK    7  A    between atoms: N_20  and  C_19 
REMARK       I    between atoms: C_22  and  N_20 
ROOT
ATOM      1  C   LIG d   1      -6.983  79.358 117.667  0.00  0.00     0.161 C 
ATOM      2  C   LIG d   1      -5.850  78.979 116.928  0.00  0.00     0.016 C 
ATOM      3  C   LIG d   1      -5.539  77.636 116.615  0.00  0.00     0.038 C 
ATOM      4  C   LIG d   1      -6.426  76.585 116.892  0.00  0.00     0.028 C 
ATOM      5  C   LIG d   1      -7.340  76.862 118.081  0.00  0.00    -0.047 C 
ATOM      6  C   LIG d   1      -8.020  78.236 117.882  0.00  0.00     0.091 C 
ENDROOT
BRANCH   1   7
ATOM      7  O   LIG d   1      -7.606  80.504 117.053  0.00  0.00    -0.368 OA
BRANCH   7   8
ATOM      8  C   LIG d   1      -7.538  81.743 117.801  0.00  0.00     0.119 C 
BRANCH   8   9
ATOM      9  C   LIG d   1      -6.754  81.459 119.097  0.00  0.00     0.028 C 
ATOM     10  C   LIG d   1      -7.550  81.834 120.359  0.00  0.00     0.006 C 
ENDBRANCH   8   9
BRANCH   8  11
ATOM     11  C   LIG d   1      -8.928  82.194 118.259  0.00  0.00     0.028 C 
ATOM     12  C   LIG d   1     -10.051  81.696 117.334  0.00  0.00     0.006 C 
ENDBRANCH   8  11
ENDBRANCH   7   8
ENDBRANCH   1   7
BRANCH   6  13
ATOM     13  N   LIG d   1      -8.867  78.622 119.040  0.00  0.00    -0.311 N 
ATOM     14  C   LIG d   1     -10.182  78.414 119.089  0.00  0.00     0.210 C 
ATOM     15  C   LIG d   1     -10.868  78.906 120.367  0.00  0.00     0.109 C 
ATOM     16  O   LIG d   1     -10.840  77.839 118.208  0.00  0.00    -0.276 OA
ATOM     17  H   LIG d   1      -8.410  79.066 119.812  0.00  0.00     0.149 HD
ENDBRANCH   6  13
BRANCH   5  18
ATOM     18  N   LIG d   1      -8.302  75.748 118.172  0.00  0.00     0.381 N 
ATOM     19  H   LIG d   1      -8.521  75.567 119.131  0.00  0.00    -0.090 HD
ATOM     20  H   LIG d   1      -7.882  74.922 117.783  0.00  0.00    -0.090 HD
ATOM     21  H   LIG d   1      -9.134  75.974 117.671  0.00  0.00    -0.090 HD
ENDBRANCH   5  18
BRANCH   3  22
ATOM     22  C   LIG d   1      -4.309  77.329 116.053  0.00  0.00     0.382 C 
ATOM     23  O   LIG d   1      -4.161  77.369 114.807  0.00  0.00    -0.241 OA
ATOM     24  O   LIG d   1      -3.358  76.969 116.772  0.00  0.00    -0.241 OA
ENDBRANCH   3  22
TORSDOF 7
ENDMDL
MODEL 7
REMARK VINA RESULT:      -5.0     14.231     16.505
REMARK  7 active torsions:
REMARK  status: ('A' for Active; 'I' for Inactive)
REMARK    1  A    between atoms: C_2  and  C_3 
REMARK    2  A    between atoms: C_3  and  O_6 
REMARK    3  A    between atoms: C_3  and  C_4 
REMARK    4  A    between atoms: C_7  and  O_6 
REMARK    5  A    between atoms: C_9  and  C_10 
REMARK    6  A    between atoms: N_15  and  C_14 
REMARK    7  A    between atoms: N_20  and  C_19 
REMARK       I    between atoms: C_22  and  N_20 
ROOT
ATOM      1  C   LIG d   1      -2.942  77.066 116.914  0.00  0.00     0.161 C 
ATOM      2  C   LIG d   1      -3.017  77.895 115.782  0.00  0.00     0.016 C 
ATOM      3  C   LIG d   1      -2.005  77.960 114.797  0.00  0.00     0.038 C 
ATOM      4  C   LIG d   1      -0.911  77.082 114.799  0.00  0.00     0.028 C 
ATOM      5  C   LIG d   1      -0.541  76.579 116.190  0.00  0.00    -0.047 C 
ATOM      6  C   LIG d   1      -1.809  76.020 116.876  0.00  0.00     0.091 C 
ENDROOT
BRANCH   1   7
ATOM      7  O   LIG d   1      -4.213  76.421 117.131  0.00  0.00    -0.368 OA
BRANCH   7   8
ATOM      8  C   LIG d   1      -5.272  76.770 116.206  0.00  0.00     0.119 C 
BRANCH   8   9
ATOM      9  C   LIG d   1      -6.444  77.330 117.035  0.00  0.00     0.028 C 
ATOM     10  C   LIG d   1      -6.389  78.861 117.169  0.00  0.00     0.006 C 
ENDBRANCH   8   9
BRANCH   8  11
ATOM     11  C   LIG d   1      -5.829  75.529 115.502  0.00  0.00     0.028 C 
ATOM     12  C   LIG d   1      -5.227  75.316 114.104  0.00  0.00     0.006 C 
ENDBRANCH   8  11
ENDBRANCH   7   8
ENDBRANCH   1   7
BRANCH   6  13
ATOM     13  N   LIG d   1      -1.552  75.584 118.273  0.00  0.00    -0.311 N 
ATOM     14  C   LIG d   1      -1.225  74.336 118.603  0.00  0.00     0.210 C 
ATOM     15  C   LIG d   1      -1.023  74.096 120.103  0.00  0.00     0.109 C 
ATOM     16  O   LIG d   1      -1.050  73.413 117.794  0.00  0.00    -0.276 OA
ATOM     17  H   LIG d   1      -1.641  76.277 118.991  0.00  0.00     0.149 HD
ENDBRANCH   6  13
BRANCH   5  18
ATOM     18  N   LIG d   1       0.523  75.569 116.031  0.00  0.00     0.381 N 
ATOM     19  H   LIG d   1       0.505  74.934 116.804  0.00  0.00    -0.090 HD
ATOM     20  H   LIG d   1       1.414  76.034 116.025  0.00  0.00    -0.090 HD
ATOM     21  H   LIG d   1       0.394  75.070 115.178  0.00  0.00    -0.090 HD
ENDBRANCH   5  18
BRANCH   3  22
ATOM     22  C   LIG d   1      -2.062  78.938 113.816  0.00  0.00     0.382 C 
ATOM     23  O   LIG d   1      -3.058  79.007 113.056  0.00  0.00    -0.241 OA
ATOM     24  O   LIG d   1      -1.110  79.726 113.653  0.00  0.00    -0.241 OA
ENDBRANCH   3  22
TORSDOF 7
ENDMDL
MODEL 8
REMARK VINA RESULT:      -4.8     12.586     14.685
REMARK  7 active torsions:
REMARK  status: ('A' for Active; 'I' for Inactive)
REMARK    1  A    between atoms: C_2  and  C_3 
REMARK    2  A    between atoms: C_3  and  O_6 
REMARK    3  A    between atoms: C_3  and  C_4 
REMARK    4  A    between atoms: C_7  and  O_6 
REMARK    5  A    between atoms: C_9  and  C_10 
REMARK    6  A    between atoms: N_15  and  C_14 
REMARK    7  A    between atoms: N_20  and  C_19 
REMARK       I    between atoms: C_22  and  N_20 
ROOT
ATOM      1  C   LIG d   1      -5.974  77.690 117.162  0.00  0.00     0.161 C 
ATOM      2  C   LIG d   1      -6.153  76.332 116.849  0.00  0.00     0.016 C 
ATOM      3  C   LIG d   1      -7.403  75.676 116.919  0.00  0.00     0.038 C 
ATOM      4  C   LIG d   1      -8.595  76.374 117.163  0.00  0.00     0.028 C 
ATOM      5  C   LIG d   1      -8.395  77.647 117.979  0.00  0.00    -0.047 C 
ATOM      6  C   LIG d   1      -7.282  78.494 117.322  0.00  0.00     0.091 C 
ENDROOT
BRANCH   1   7
ATOM      7  O   LIG d   1      -5.122  78.310 116.179  0.00  0.00    -0.368 OA
BRANCH   7   8
ATOM      8  C   LIG d   1      -3.702  78.059 116.317  0.00  0.00     0.119 C 
BRANCH   8   9
ATOM      9  C   LIG d   1      -3.207  78.862 117.536  0.00  0.00     0.028 C 
ATOM     10  C   LIG d   1      -2.130  78.110 118.336  0.00  0.00     0.006 C 
ENDBRANCH   8   9
BRANCH   8  11
ATOM     11  C   LIG d   1      -2.919  78.612 115.123  0.00  0.00     0.028 C 
ATOM     12  C   LIG d   1      -2.593  77.536 114.075  0.00  0.00     0.006 C 
ENDBRANCH   8  11
ENDBRANCH   7   8
ENDBRANCH   1   7
BRANCH   6  13
ATOM     13  N   LIG d   1      -6.964  79.717 118.104  0.00  0.00    -0.311 N 
ATOM     14  C   LIG d   1      -7.465  80.919 117.822  0.00  0.00     0.210 C 
ATOM     15  C   LIG d   1      -6.993  82.049 118.742  0.00  0.00     0.109 C 
ATOM     16  O   LIG d   1      -8.281  81.150 116.917  0.00  0.00    -0.276 OA
ATOM     17  H   LIG d   1      -6.334  79.615 118.876  0.00  0.00     0.149 HD
ENDBRANCH   6  13
BRANCH   5  18
ATOM     18  N   LIG d   1      -9.693  78.345 118.040  0.00  0.00     0.381 N 
ATOM     19  H   LIG d   1      -9.664  79.052 118.748  0.00  0.00    -0.090 HD
ATOM     20  H   LIG d   1     -10.408  77.683 118.285  0.00  0.00    -0.090 HD
ATOM     21  H   LIG d   1      -9.900  78.758 117.157  0.00  0.00    -0.090 HD
ENDBRANCH   5  18
BRANCH   3  22
ATOM     22  C   LIG d   1      -7.464  74.297 116.783  0.00  0.00     0.382 C 
ATOM     23  O   LIG d   1      -6.574  73.691 116.140  0.00  0.00    -0.241 OA
ATOM     24  O   LIG d   1      -8.421  73.657 117.259  0.00  0.00    -0.241 OA
ENDBRANCH   3  22
TORSDOF 7
ENDMDL
MODEL 9
REMARK VINA RESULT:      -4.7     12.847     14.982
REMARK  7 active torsions:
REMARK  status: ('A' for Active; 'I' for Inactive)
REMARK    1  A    between atoms: C_2  and  C_3 
REMARK    2  A    between atoms: C_3  and  O_6 
REMARK    3  A    between atoms: C_3  and  C_4 
REMARK    4  A    between atoms: C_7  and  O_6 
REMARK    5  A    between atoms: C_9  and  C_10 
REMARK    6  A    between atoms: N_15  and  C_14 
REMARK    7  A    between atoms: N_20  and  C_19 
REMARK       I    between atoms: C_22  and  N_20 
ROOT
ATOM      1  C   LIG d   1      -6.904  77.485 117.617  0.00  0.00     0.161 C 
ATOM      2  C   LIG d   1      -8.286  77.517 117.868  0.00  0.00     0.016 C 
ATOM      3  C   LIG d   1      -8.970  78.673 118.309  0.00  0.00     0.038 C 
ATOM      4  C   LIG d   1      -8.340  79.924 118.387  0.00  0.00     0.028 C 
ATOM      5  C   LIG d   1      -6.838  79.831 118.629  0.00  0.00    -0.047 C 
ATOM      6  C   LIG d   1      -6.220  78.868 117.589  0.00  0.00     0.091 C 
ENDROOT
BRANCH   1   7
ATOM      7  O   LIG d   1      -6.646  76.774 116.391  0.00  0.00    -0.368 OA
BRANCH   7   8
ATOM      8  C   LIG d   1      -6.096  75.440 116.531  0.00  0.00     0.119 C 
BRANCH   8   9
ATOM      9  C   LIG d   1      -4.951  75.302 115.509  0.00  0.00     0.028 C 
ATOM     10  C   LIG d   1      -3.604  74.982 116.178  0.00  0.00     0.006 C 
ENDBRANCH   8   9
BRANCH   8  11
ATOM     11  C   LIG d   1      -7.121  74.372 116.140  0.00  0.00     0.028 C 
ATOM     12  C   LIG d   1      -8.046  73.978 117.303  0.00  0.00     0.006 C 
ENDBRANCH   8  11
ENDBRANCH   7   8
ENDBRANCH   1   7
BRANCH   6  13
ATOM     13  N   LIG d   1      -4.765  78.655 117.808  0.00  0.00    -0.311 N 
ATOM     14  C   LIG d   1      -3.869  78.649 116.822  0.00  0.00     0.210 C 
ATOM     15  C   LIG d   1      -2.425  78.391 117.264  0.00  0.00     0.109 C 
ATOM     16  O   LIG d   1      -4.129  78.863 115.629  0.00  0.00    -0.276 OA
ATOM     17  H   LIG d   1      -4.463  78.504 118.750  0.00  0.00     0.149 HD
ENDBRANCH   6  13
BRANCH   5  18
ATOM     18  N   LIG d   1      -6.288  81.198 118.550  0.00  0.00     0.381 N 
ATOM     19  H   LIG d   1      -5.579  81.237 117.846  0.00  0.00    -0.090 HD
ATOM     20  H   LIG d   1      -5.869  81.431 119.433  0.00  0.00    -0.090 HD
ATOM     21  H   LIG d   1      -7.015  81.845 118.337  0.00  0.00    -0.090 HD
ENDBRANCH   5  18
BRANCH   3  22
ATOM     22  C   LIG d   1     -10.292  78.574 118.718  0.00  0.00     0.382 C 
ATOM     23  O   LIG d   1     -11.045  77.714 118.202  0.00  0.00    -0.241 OA
ATOM     24  O   LIG d   1     -10.752  79.365 119.564  0.00  0.00    -0.241 OA
ENDBRANCH   3  22
TORSDOF 7
ENDMDL
