MODEL 1
REMARK VINA RESULT:      -5.6      0.000      0.000
REMARK  7 active torsions:
REMARK  status: ('A' for Active; 'I' for Inactive)
REMARK    1  A    between atoms: C_2  and  C_3 
REMARK    2  A    between atoms: C_3  and  O_6 
REMARK    3  A    between atoms: C_3  and  C_4 
REMARK    4  A    between atoms: C_7  and  O_6 
REMARK    5  A    between atoms: C_9  and  C_10 
REMARK    6  A    between atoms: N_15  and  C_14 
REMARK    7  A    between atoms: N_20  and  C_19 
REMARK       I    between atoms: C_22  and  N_20 
ROOT
ATOM      1  C   LIG d   1      -7.214  75.565 117.758  0.00  0.00     0.161 C 
ATOM      2  C   LIG d   1      -8.539  75.514 118.222  0.00  0.00     0.016 C 
ATOM      3  C   LIG d   1      -9.239  76.643 118.705  0.00  0.00     0.038 C 
ATOM      4  C   LIG d   1      -8.708  77.939 118.615  0.00  0.00     0.028 C 
ATOM      5  C   LIG d   1      -7.183  77.970 118.621  0.00  0.00    -0.047 C 
ATOM      6  C   LIG d   1      -6.657  76.989 117.548  0.00  0.00     0.091 C 
ENDROOT
BRANCH   1   7
ATOM      7  O   LIG d   1      -7.091  74.795 116.545  0.00  0.00    -0.368 OA
BRANCH   7   8
ATOM      8  C   LIG d   1      -6.049  73.788 116.532  0.00  0.00     0.119 C 
BRANCH   8   9
ATOM      9  C   LIG d   1      -5.045  74.175 115.430  0.00  0.00     0.028 C 
ATOM     10  C   LIG d   1      -5.685  75.036 114.328  0.00  0.00     0.006 C 
ENDBRANCH   8   9
BRANCH   8  11
ATOM     11  C   LIG d   1      -6.601  72.421 116.117  0.00  0.00     0.028 C 
ATOM     12  C   LIG d   1      -7.625  71.863 117.118  0.00  0.00     0.006 C 
ENDBRANCH   8  11
ENDBRANCH   7   8
ENDBRANCH   1   7
BRANCH   6  13
ATOM     13  N   LIG d   1      -5.174  76.895 117.545  0.00  0.00    -0.311 N 
ATOM     14  C   LIG d   1      -4.395  77.619 116.742  0.00  0.00     0.210 C 
ATOM     15  C   LIG d   1      -2.894  77.354 116.886  0.00  0.00     0.109 C 
ATOM     16  O   LIG d   1      -4.804  78.480 115.949  0.00  0.00    -0.276 OA
ATOM     17  H   LIG d   1      -4.756  76.244 118.180  0.00  0.00     0.149 HD
ENDBRANCH   6  13
BRANCH   5  18
ATOM     18  N   LIG d   1      -6.765  79.364 118.383  0.00  0.00     0.381 N 
ATOM     19  H   LIG d   1      -6.405  79.759 119.229  0.00  0.00    -0.090 HD
ATOM     20  H   LIG d   1      -7.567  79.900 118.101  0.00  0.00    -0.090 HD
ATOM     21  H   LIG d   1      -6.068  79.395 117.671  0.00  0.00    -0.090 HD
ENDBRANCH   5  18
BRANCH   3  22
ATOM     22  C   LIG d   1     -10.469  76.477 119.322  0.00  0.00     0.382 C 
ATOM     23  O   LIG d   1     -10.543  75.878 120.422  0.00  0.00    -0.241 OA
ATOM     24  O   LIG d   1     -11.511  76.880 118.772  0.00  0.00    -0.241 OA
ENDBRANCH   3  22
TORSDOF 7
ENDMDL
MODEL 2
REMARK VINA RESULT:      -5.5      2.504      4.140
REMARK  7 active torsions:
REMARK  status: ('A' for Active; 'I' for Inactive)
REMARK    1  A    between atoms: C_2  and  C_3 
REMARK    2  A    between atoms: C_3  and  O_6 
REMARK    3  A    between atoms: C_3  and  C_4 
REMARK    4  A    between atoms: C_7  and  O_6 
REMARK    5  A    between atoms: C_9  and  C_10 
REMARK    6  A    between atoms: N_15  and  C_14 
REMARK    7  A    between atoms: N_20  and  C_19 
REMARK       I    between atoms: C_22  and  N_20 
ROOT
ATOM      1  C   LIG d   1      -5.207  75.345 117.763  0.00  0.00     0.161 C 
ATOM      2  C   LIG d   1      -5.519  74.075 117.249  0.00  0.00     0.016 C 
ATOM      3  C   LIG d   1      -6.840  73.646 116.983  0.00  0.00     0.038 C 
ATOM      4  C   LIG d   1      -7.935  74.518 117.072  0.00  0.00     0.028 C 
ATOM      5  C   LIG d   1      -7.726  75.654 118.068  0.00  0.00    -0.047 C 
ATOM      6  C   LIG d   1      -6.379  76.349 117.761  0.00  0.00     0.091 C 
ENDROOT
BRANCH   1   7
ATOM      7  O   LIG d   1      -4.077  75.894 117.058  0.00  0.00    -0.368 OA
BRANCH   7   8
ATOM      8  C   LIG d   1      -3.747  75.264 115.795  0.00  0.00     0.119 C 
BRANCH   8   9
ATOM      9  C   LIG d   1      -2.210  75.219 115.688  0.00  0.00     0.028 C 
ATOM     10  C   LIG d   1      -1.567  74.389 116.812  0.00  0.00     0.006 C 
ENDBRANCH   8   9
BRANCH   8  11
ATOM     11  C   LIG d   1      -4.211  76.116 114.610  0.00  0.00     0.028 C 
ATOM     12  C   LIG d   1      -5.462  75.547 113.921  0.00  0.00     0.006 C 
ENDBRANCH   8  11
ENDBRANCH   7   8
ENDBRANCH   1   7
BRANCH   6  13
ATOM     13  N   LIG d   1      -6.057  77.418 118.741  0.00  0.00    -0.311 N 
ATOM     14  C   LIG d   1      -6.334  78.705 118.540  0.00  0.00     0.210 C 
ATOM     15  C   LIG d   1      -5.899  79.645 119.669  0.00  0.00     0.109 C 
ATOM     16  O   LIG d   1      -6.927  79.154 117.547  0.00  0.00    -0.276 OA
ATOM     17  H   LIG d   1      -5.603  77.139 119.589  0.00  0.00     0.149 HD
ENDBRANCH   6  13
BRANCH   5  18
ATOM     18  N   LIG d   1      -8.883  76.562 117.958  0.00  0.00     0.381 N 
ATOM     19  H   LIG d   1      -9.543  76.358 118.681  0.00  0.00    -0.090 HD
ATOM     20  H   LIG d   1      -9.331  76.412 117.071  0.00  0.00    -0.090 HD
ATOM     21  H   LIG d   1      -8.582  77.509 118.031  0.00  0.00    -0.090 HD
ENDBRANCH   5  18
BRANCH   3  22
ATOM     22  C   LIG d   1      -7.079  72.318 116.662  0.00  0.00     0.382 C 
ATOM     23  O   LIG d   1      -6.446  71.776 115.724  0.00  0.00    -0.241 OA
ATOM     24  O   LIG d   1      -7.952  71.669 117.269  0.00  0.00    -0.241 OA
ENDBRANCH   3  22
TORSDOF 7
ENDMDL
MODEL 3
REMARK VINA RESULT:      -5.4      2.559      5.552
REMARK  7 active torsions:
REMARK  status: ('A' for Active; 'I' for Inactive)
REMARK    1  A    between atoms: C_2  and  C_3 
REMARK    2  A    between atoms: C_3  and  O_6 
REMARK    3  A    between atoms: C_3  and  C_4 
REMARK    4  A    between atoms: C_7  and  O_6 
REMARK    5  A    between atoms: C_9  and  C_10 
REMARK    6  A    between atoms: N_15  and  C_14 
REMARK    7  A    between atoms: N_20  and  C_19 
REMARK       I    between atoms: C_22  and  N_20 
ROOT
ATOM      1  C   LIG d   1      -4.854  75.815 115.948  0.00  0.00     0.161 C 
ATOM      2  C   LIG d   1      -3.725  75.043 115.631  0.00  0.00     0.016 C 
ATOM      3  C   LIG d   1      -2.535  75.053 116.396  0.00  0.00     0.038 C 
ATOM      4  C   LIG d   1      -2.449  75.727 117.623  0.00  0.00     0.028 C 
ATOM      5  C   LIG d   1      -3.390  76.922 117.725  0.00  0.00    -0.047 C 
ATOM      6  C   LIG d   1      -4.818  76.471 117.344  0.00  0.00     0.091 C 
ENDROOT
BRANCH   1   7
ATOM      7  O   LIG d   1      -6.047  75.020 115.799  0.00  0.00    -0.368 OA
BRANCH   7   8
ATOM      8  C   LIG d   1      -6.329  74.086 116.870  0.00  0.00     0.119 C 
BRANCH   8   9
ATOM      9  C   LIG d   1      -6.464  72.686 116.239  0.00  0.00     0.028 C 
ATOM     10  C   LIG d   1      -7.458  71.793 117.001  0.00  0.00     0.006 C 
ENDBRANCH   8   9
BRANCH   8  11
ATOM     11  C   LIG d   1      -7.688  74.373 117.515  0.00  0.00     0.028 C 
ATOM     12  C   LIG d   1      -8.543  75.351 116.695  0.00  0.00     0.006 C 
ENDBRANCH   8  11
ENDBRANCH   7   8
ENDBRANCH   1   7
BRANCH   6  13
ATOM     13  N   LIG d   1      -5.786  77.599 117.337  0.00  0.00    -0.311 N 
ATOM     14  C   LIG d   1      -6.563  77.905 118.375  0.00  0.00     0.210 C 
ATOM     15  C   LIG d   1      -7.504  79.093 118.149  0.00  0.00     0.109 C 
ATOM     16  O   LIG d   1      -6.539  77.327 119.471  0.00  0.00    -0.276 OA
ATOM     17  H   LIG d   1      -5.848  78.141 116.497  0.00  0.00     0.149 HD
ENDBRANCH   6  13
BRANCH   5  18
ATOM     18  N   LIG d   1      -3.297  77.446 119.101  0.00  0.00     0.381 N 
ATOM     19  H   LIG d   1      -3.714  78.354 119.147  0.00  0.00    -0.090 HD
ATOM     20  H   LIG d   1      -2.327  77.532 119.351  0.00  0.00    -0.090 HD
ATOM     21  H   LIG d   1      -3.757  76.829 119.733  0.00  0.00    -0.090 HD
ENDBRANCH   5  18
BRANCH   3  22
ATOM     22  C   LIG d   1      -1.403  74.415 115.913  0.00  0.00     0.382 C 
ATOM     23  O   LIG d   1      -0.660  73.778 116.698  0.00  0.00    -0.241 OA
ATOM     24  O   LIG d   1      -1.090  74.507 114.711  0.00  0.00    -0.241 OA
ENDBRANCH   3  22
TORSDOF 7
ENDMDL
MODEL 4
REMARK VINA RESULT:      -5.0      2.293      3.582
REMARK  7 active torsions:
REMARK  status: ('A' for Active; 'I' for Inactive)
REMARK    1  A    between atoms: C_2  and  C_3 
REMARK    2  A    between atoms: C_3  and  O_6 
REMARK    3  A    between atoms: C_3  and  C_4 
REMARK    4  A    between atoms: C_7  and  O_6 
REMARK    5  A    between atoms: C_9  and  C_10 
REMARK    6  A    between atoms: N_15  and  C_14 
REMARK    7  A    between atoms: N_20  and  C_19 
REMARK       I    between atoms: C_22  and  N_20 
ROOT
ATOM      1  C   LIG d   1      -4.542  75.429 117.517  0.00  0.00     0.161 C 
ATOM      2  C   LIG d   1      -5.817  75.960 117.772  0.00  0.00     0.016 C 
ATOM      3  C   LIG d   1      -6.169  77.303 117.505  0.00  0.00     0.038 C 
ATOM      4  C   LIG d   1      -5.307  78.173 116.820  0.00  0.00     0.028 C 
ATOM      5  C   LIG d   1      -3.832  77.828 116.997  0.00  0.00    -0.047 C 
ATOM      6  C   LIG d   1      -3.624  76.332 116.668  0.00  0.00     0.091 C 
ENDROOT
BRANCH   1   7
ATOM      7  O   LIG d   1      -4.667  74.128 116.909  0.00  0.00    -0.368 OA
BRANCH   7   8
ATOM      8  C   LIG d   1      -5.798  73.945 116.023  0.00  0.00     0.119 C 
BRANCH   8   9
ATOM      9  C   LIG d   1      -6.256  72.479 116.152  0.00  0.00     0.028 C 
ATOM     10  C   LIG d   1      -7.597  72.346 116.892  0.00  0.00     0.006 C 
ENDBRANCH   8   9
BRANCH   8  11
ATOM     11  C   LIG d   1      -5.390  74.114 114.556  0.00  0.00     0.028 C 
ATOM     12  C   LIG d   1      -5.850  75.454 113.960  0.00  0.00     0.006 C 
ENDBRANCH   8  11
ENDBRANCH   7   8
ENDBRANCH   1   7
BRANCH   6  13
ATOM     13  N   LIG d   1      -2.223  75.892 116.896  0.00  0.00    -0.311 N 
ATOM     14  C   LIG d   1      -1.488  75.275 115.972  0.00  0.00     0.210 C 
ATOM     15  C   LIG d   1      -0.076  74.888 116.422  0.00  0.00     0.109 C 
ATOM     16  O   LIG d   1      -1.861  75.041 114.813  0.00  0.00    -0.276 OA
ATOM     17  H   LIG d   1      -1.830  76.070 117.800  0.00  0.00     0.149 HD
ENDBRANCH   6  13
BRANCH   5  18
ATOM     18  N   LIG d   1      -3.056  78.727 116.122  0.00  0.00     0.381 N 
ATOM     19  H   LIG d   1      -2.520  78.187 115.473  0.00  0.00    -0.090 HD
ATOM     20  H   LIG d   1      -2.421  79.263 116.687  0.00  0.00    -0.090 HD
ATOM     21  H   LIG d   1      -3.671  79.337 115.629  0.00  0.00    -0.090 HD
ENDBRANCH   5  18
BRANCH   3  22
ATOM     22  C   LIG d   1      -7.380  77.800 117.961  0.00  0.00     0.382 C 
ATOM     23  O   LIG d   1      -7.660  79.013 117.802  0.00  0.00    -0.241 OA
ATOM     24  O   LIG d   1      -8.178  77.062 118.570  0.00  0.00    -0.241 OA
ENDBRANCH   3  22
TORSDOF 7
ENDMDL
MODEL 5
REMARK VINA RESULT:      -5.0      2.118      2.843
REMARK  7 active torsions:
REMARK  status: ('A' for Active; 'I' for Inactive)
REMARK    1  A    between atoms: C_2  and  C_3 
REMARK    2  A    between atoms: C_3  and  O_6 
REMARK    3  A    between atoms: C_3  and  C_4 
REMARK    4  A    between atoms: C_7  and  O_6 
REMARK    5  A    between atoms: C_9  and  C_10 
REMARK    6  A    between atoms: N_15  and  C_14 
REMARK    7  A    between atoms: N_20  and  C_19 
REMARK       I    between atoms: C_22  and  N_20 
ROOT
ATOM      1  C   LIG d   1      -7.570  77.762 118.485  0.00  0.00     0.161 C 
ATOM      2  C   LIG d   1      -8.660  76.931 118.790  0.00  0.00     0.016 C 
ATOM      3  C   LIG d   1      -9.953  77.420 119.084  0.00  0.00     0.038 C 
ATOM      4  C   LIG d   1     -10.283  78.776 118.945  0.00  0.00     0.028 C 
ATOM      5  C   LIG d   1      -9.092  79.711 119.131  0.00  0.00    -0.047 C 
ATOM      6  C   LIG d   1      -7.936  79.238 118.220  0.00  0.00     0.091 C 
ENDROOT
BRANCH   1   7
ATOM      7  O   LIG d   1      -6.838  77.219 117.369  0.00  0.00    -0.368 OA
BRANCH   7   8
ATOM      8  C   LIG d   1      -6.203  75.935 117.587  0.00  0.00     0.119 C 
BRANCH   8   9
ATOM      9  C   LIG d   1      -4.682  76.140 117.441  0.00  0.00     0.028 C 
ATOM     10  C   LIG d   1      -3.960  74.864 116.978  0.00  0.00     0.006 C 
ENDBRANCH   8   9
BRANCH   8  11
ATOM     11  C   LIG d   1      -6.583  74.933 116.493  0.00  0.00     0.028 C 
ATOM     12  C   LIG d   1      -7.523  73.827 116.999  0.00  0.00     0.006 C 
ENDBRANCH   8  11
ENDBRANCH   7   8
ENDBRANCH   1   7
BRANCH   6  13
ATOM     13  N   LIG d   1      -6.703  80.047 118.402  0.00  0.00    -0.311 N 
ATOM     14  C   LIG d   1      -6.446  81.157 117.712  0.00  0.00     0.210 C 
ATOM     15  C   LIG d   1      -5.108  81.828 118.041  0.00  0.00     0.109 C 
ATOM     16  O   LIG d   1      -7.213  81.667 116.882  0.00  0.00    -0.276 OA
ATOM     17  H   LIG d   1      -6.040  79.722 119.079  0.00  0.00     0.149 HD
ENDBRANCH   6  13
BRANCH   5  18
ATOM     18  N   LIG d   1      -9.547  81.079 118.823  0.00  0.00     0.381 N 
ATOM     19  H   LIG d   1     -10.547  81.116 118.842  0.00  0.00    -0.090 HD
ATOM     20  H   LIG d   1      -9.240  81.324 117.898  0.00  0.00    -0.090 HD
ATOM     21  H   LIG d   1      -9.172  81.721 119.487  0.00  0.00    -0.090 HD
ENDBRANCH   5  18
BRANCH   3  22
ATOM     22  C   LIG d   1     -10.924  76.552 119.562  0.00  0.00     0.382 C 
ATOM     23  O   LIG d   1     -12.019  76.444 118.959  0.00  0.00    -0.241 OA
ATOM     24  O   LIG d   1     -10.735  75.909 120.612  0.00  0.00    -0.241 OA
ENDBRANCH   3  22
TORSDOF 7
ENDMDL
MODEL 6
REMARK VINA RESULT:      -4.7     13.253     15.735
REMARK  7 active torsions:
REMARK  status: ('A' for Active; 'I' for Inactive)
REMARK    1  A    between atoms: C_2  and  C_3 
REMARK    2  A    between atoms: C_3  and  O_6 
REMARK    3  A    between atoms: C_3  and  C_4 
REMARK    4  A    between atoms: C_7  and  O_6 
REMARK    5  A    between atoms: C_9  and  C_10 
REMARK    6  A    between atoms: N_15  and  C_14 
REMARK    7  A    between atoms: N_20  and  C_19 
REMARK       I    between atoms: C_22  and  N_20 
ROOT
ATOM      1  C   LIG d   1       1.427  88.865 116.244  0.00  0.00     0.161 C 
ATOM      2  C   LIG d   1       0.099  88.975 116.688  0.00  0.00     0.016 C 
ATOM      3  C   LIG d   1      -0.411  90.121 117.342  0.00  0.00     0.038 C 
ATOM      4  C   LIG d   1       0.339  91.300 117.463  0.00  0.00     0.028 C 
ATOM      5  C   LIG d   1       1.845  91.062 117.480  0.00  0.00    -0.047 C 
ATOM      6  C   LIG d   1       2.228  90.184 116.267  0.00  0.00     0.091 C 
ENDROOT
BRANCH   1   7
ATOM      7  O   LIG d   1       1.454  88.285 114.924  0.00  0.00    -0.368 OA
BRANCH   7   8
ATOM      8  C   LIG d   1       1.750  86.869 114.857  0.00  0.00     0.119 C 
BRANCH   8   9
ATOM      9  C   LIG d   1       2.969  86.694 113.930  0.00  0.00     0.028 C 
ATOM     10  C   LIG d   1       4.212  86.191 114.684  0.00  0.00     0.006 C 
ENDBRANCH   8   9
BRANCH   8  11
ATOM     11  C   LIG d   1       0.614  86.094 114.183  0.00  0.00     0.028 C 
ATOM     12  C   LIG d   1      -0.445  85.601 115.181  0.00  0.00     0.006 C 
ENDBRANCH   8  11
ENDBRANCH   7   8
ENDBRANCH   1   7
BRANCH   6  13
ATOM     13  N   LIG d   1       3.672  89.833 116.255  0.00  0.00    -0.311 N 
ATOM     14  C   LIG d   1       4.440  89.927 115.171  0.00  0.00     0.210 C 
ATOM     15  C   LIG d   1       5.896  89.496 115.371  0.00  0.00     0.109 C 
ATOM     16  O   LIG d   1       4.061  90.357 114.071  0.00  0.00    -0.276 OA
ATOM     17  H   LIG d   1       4.069  89.505 117.113  0.00  0.00     0.149 HD
ENDBRANCH   6  13
BRANCH   5  18
ATOM     18  N   LIG d   1       2.505  92.381 117.470  0.00  0.00     0.381 N 
ATOM     19  H   LIG d   1       2.232  92.903 118.279  0.00  0.00    -0.090 HD
ATOM     20  H   LIG d   1       2.208  92.887 116.654  0.00  0.00    -0.090 HD
ATOM     21  H   LIG d   1       3.495  92.267 117.458  0.00  0.00    -0.090 HD
ENDBRANCH   5  18
BRANCH   3  22
ATOM     22  C   LIG d   1      -1.670  90.079 117.920  0.00  0.00     0.382 C 
ATOM     23  O   LIG d   1      -1.806  90.310 119.146  0.00  0.00    -0.241 OA
ATOM     24  O   LIG d   1      -2.667  89.769 117.240  0.00  0.00    -0.241 OA
ENDBRANCH   3  22
TORSDOF 7
ENDMDL
MODEL 7
REMARK VINA RESULT:      -4.5      1.991      5.046
REMARK  7 active torsions:
REMARK  status: ('A' for Active; 'I' for Inactive)
REMARK    1  A    between atoms: C_2  and  C_3 
REMARK    2  A    between atoms: C_3  and  O_6 
REMARK    3  A    between atoms: C_3  and  C_4 
REMARK    4  A    between atoms: C_7  and  O_6 
REMARK    5  A    between atoms: C_9  and  C_10 
REMARK    6  A    between atoms: N_15  and  C_14 
REMARK    7  A    between atoms: N_20  and  C_19 
REMARK       I    between atoms: C_22  and  N_20 
ROOT
ATOM      1  C   LIG d   1      -5.558  77.427 116.991  0.00  0.00     0.161 C 
ATOM      2  C   LIG d   1      -4.524  78.200 116.435  0.00  0.00     0.016 C 
ATOM      3  C   LIG d   1      -4.422  79.599 116.605  0.00  0.00     0.038 C 
ATOM      4  C   LIG d   1      -5.268  80.305 117.473  0.00  0.00     0.028 C 
ATOM      5  C   LIG d   1      -6.632  79.648 117.657  0.00  0.00    -0.047 C 
ATOM      6  C   LIG d   1      -6.427  78.162 118.032  0.00  0.00     0.091 C 
ENDROOT
BRANCH   1   7
ATOM      7  O   LIG d   1      -5.014  76.218 117.556  0.00  0.00    -0.368 OA
BRANCH   7   8
ATOM      8  C   LIG d   1      -5.252  75.001 116.807  0.00  0.00     0.119 C 
BRANCH   8   9
ATOM      9  C   LIG d   1      -6.141  75.365 115.602  0.00  0.00     0.028 C 
ATOM     10  C   LIG d   1      -5.488  75.000 114.258  0.00  0.00     0.006 C 
ENDBRANCH   8   9
BRANCH   8  11
ATOM     11  C   LIG d   1      -6.068  73.994 117.623  0.00  0.00     0.028 C 
ATOM     12  C   LIG d   1      -7.551  73.965 117.223  0.00  0.00     0.006 C 
ENDBRANCH   8  11
ENDBRANCH   7   8
ENDBRANCH   1   7
BRANCH   6  13
ATOM     13  N   LIG d   1      -7.711  77.424 118.148  0.00  0.00    -0.311 N 
ATOM     14  C   LIG d   1      -8.369  77.274 119.296  0.00  0.00     0.210 C 
ATOM     15  C   LIG d   1      -9.664  76.461 119.198  0.00  0.00     0.109 C 
ATOM     16  O   LIG d   1      -8.021  77.764 120.381  0.00  0.00    -0.276 OA
ATOM     17  H   LIG d   1      -8.082  77.020 117.310  0.00  0.00     0.149 HD
ENDBRANCH   6  13
BRANCH   5  18
ATOM     18  N   LIG d   1      -7.359  80.410 118.689  0.00  0.00     0.381 N 
ATOM     19  H   LIG d   1      -8.345  80.307 118.556  0.00  0.00    -0.090 HD
ATOM     20  H   LIG d   1      -7.128  81.384 118.597  0.00  0.00    -0.090 HD
ATOM     21  H   LIG d   1      -7.103  80.085 119.596  0.00  0.00    -0.090 HD
ENDBRANCH   5  18
BRANCH   3  22
ATOM     22  C   LIG d   1      -3.489  80.314 115.869  0.00  0.00     0.382 C 
ATOM     23  O   LIG d   1      -3.637  80.450 114.631  0.00  0.00    -0.241 OA
ATOM     24  O   LIG d   1      -2.478  80.788 116.421  0.00  0.00    -0.241 OA
ENDBRANCH   3  22
TORSDOF 7
ENDMDL
MODEL 8
REMARK VINA RESULT:      -4.5      2.616      4.567
REMARK  7 active torsions:
REMARK  status: ('A' for Active; 'I' for Inactive)
REMARK    1  A    between atoms: C_2  and  C_3 
REMARK    2  A    between atoms: C_3  and  O_6 
REMARK    3  A    between atoms: C_3  and  C_4 
REMARK    4  A    between atoms: C_7  and  O_6 
REMARK    5  A    between atoms: C_9  and  C_10 
REMARK    6  A    between atoms: N_15  and  C_14 
REMARK    7  A    between atoms: N_20  and  C_19 
REMARK       I    between atoms: C_22  and  N_20 
ROOT
ATOM      1  C   LIG d   1      -4.860  75.476 117.723  0.00  0.00     0.161 C 
ATOM      2  C   LIG d   1      -5.153  74.149 117.364  0.00  0.00     0.016 C 
ATOM      3  C   LIG d   1      -6.468  73.636 117.291  0.00  0.00     0.038 C 
ATOM      4  C   LIG d   1      -7.595  74.460 117.425  0.00  0.00     0.028 C 
ATOM      5  C   LIG d   1      -7.343  75.695 118.284  0.00  0.00    -0.047 C 
ATOM      6  C   LIG d   1      -6.080  76.419 117.764  0.00  0.00     0.091 C 
ENDROOT
BRANCH   1   7
ATOM      7  O   LIG d   1      -3.846  76.006 116.846  0.00  0.00    -0.368 OA
BRANCH   7   8
ATOM      8  C   LIG d   1      -2.537  76.206 117.433  0.00  0.00     0.119 C 
BRANCH   8   9
ATOM      9  C   LIG d   1      -1.684  74.967 117.094  0.00  0.00     0.028 C 
ATOM     10  C   LIG d   1      -1.539  74.751 115.579  0.00  0.00     0.006 C 
ENDBRANCH   8   9
BRANCH   8  11
ATOM     11  C   LIG d   1      -2.611  76.241 118.962  0.00  0.00     0.028 C 
ATOM     12  C   LIG d   1      -1.892  77.459 119.565  0.00  0.00     0.006 C 
ENDBRANCH   8  11
ENDBRANCH   7   8
ENDBRANCH   1   7
BRANCH   6  13
ATOM     13  N   LIG d   1      -5.714  77.591 118.601  0.00  0.00    -0.311 N 
ATOM     14  C   LIG d   1      -6.093  78.838 118.323  0.00  0.00     0.210 C 
ATOM     15  C   LIG d   1      -5.590  79.901 119.304  0.00  0.00     0.109 C 
ATOM     16  O   LIG d   1      -6.825  79.159 117.375  0.00  0.00    -0.276 OA
ATOM     17  H   LIG d   1      -5.148  77.417 119.408  0.00  0.00     0.149 HD
ENDBRANCH   6  13
BRANCH   5  18
ATOM     18  N   LIG d   1      -8.556  76.533 118.227  0.00  0.00     0.381 N 
ATOM     19  H   LIG d   1      -8.778  76.741 117.274  0.00  0.00    -0.090 HD
ATOM     20  H   LIG d   1      -8.376  77.398 118.705  0.00  0.00    -0.090 HD
ATOM     21  H   LIG d   1      -9.319  76.059 118.658  0.00  0.00    -0.090 HD
ENDBRANCH   5  18
BRANCH   3  22
ATOM     22  C   LIG d   1      -6.665  72.274 117.120  0.00  0.00     0.382 C 
ATOM     23  O   LIG d   1      -7.817  71.830 116.895  0.00  0.00    -0.241 OA
ATOM     24  O   LIG d   1      -5.713  71.479 117.232  0.00  0.00    -0.241 OA
ENDBRANCH   3  22
TORSDOF 7
ENDMDL
MODEL 9
REMARK VINA RESULT:      -4.5      2.647      5.263
REMARK  7 active torsions:
REMARK  status: ('A' for Active; 'I' for Inactive)
REMARK    1  A    between atoms: C_2  and  C_3 
REMARK    2  A    between atoms: C_3  and  O_6 
REMARK    3  A    between atoms: C_3  and  C_4 
REMARK    4  A    between atoms: C_7  and  O_6 
REMARK    5  A    between atoms: C_9  and  C_10 
REMARK    6  A    between atoms: N_15  and  C_14 
REMARK    7  A    between atoms: N_20  and  C_19 
REMARK       I    between atoms: C_22  and  N_20 
ROOT
ATOM      1  C   LIG d   1      -8.039  78.831 118.127  0.00  0.00     0.161 C 
ATOM      2  C   LIG d   1      -9.300  78.616 118.708  0.00  0.00     0.016 C 
ATOM      3  C   LIG d   1      -9.838  77.331 118.945  0.00  0.00     0.038 C 
ATOM      4  C   LIG d   1      -9.083  76.164 118.756  0.00  0.00     0.028 C 
ATOM      5  C   LIG d   1      -7.994  76.312 117.699  0.00  0.00    -0.047 C 
ATOM      6  C   LIG d   1      -7.155  77.571 118.016  0.00  0.00     0.091 C 
ENDROOT
BRANCH   1   7
ATOM      7  O   LIG d   1      -7.342  79.870 118.842  0.00  0.00    -0.368 OA
BRANCH   7   8
ATOM      8  C   LIG d   1      -8.064  81.113 119.024  0.00  0.00     0.119 C 
BRANCH   8   9
ATOM      9  C   LIG d   1      -7.828  81.974 117.769  0.00  0.00     0.028 C 
ATOM     10  C   LIG d   1      -9.140  82.350 117.060  0.00  0.00     0.006 C 
ENDBRANCH   8   9
BRANCH   8  11
ATOM     11  C   LIG d   1      -7.489  81.926 120.188  0.00  0.00     0.028 C 
ATOM     12  C   LIG d   1      -6.507  83.014 119.726  0.00  0.00     0.006 C 
ENDBRANCH   8  11
ENDBRANCH   7   8
ENDBRANCH   1   7
BRANCH   6  13
ATOM     13  N   LIG d   1      -6.119  77.837 116.984  0.00  0.00    -0.311 N 
ATOM     14  C   LIG d   1      -4.864  77.403 117.075  0.00  0.00     0.210 C 
ATOM     15  C   LIG d   1      -3.953  77.806 115.911  0.00  0.00     0.109 C 
ATOM     16  O   LIG d   1      -4.426  76.695 117.995  0.00  0.00    -0.276 OA
ATOM     17  H   LIG d   1      -6.397  78.378 116.188  0.00  0.00     0.149 HD
ENDBRANCH   6  13
BRANCH   5  18
ATOM     18  N   LIG d   1      -7.198  75.070 117.702  0.00  0.00     0.381 N 
ATOM     19  H   LIG d   1      -6.824  74.910 118.616  0.00  0.00    -0.090 HD
ATOM     20  H   LIG d   1      -6.430  75.175 117.062  0.00  0.00    -0.090 HD
ATOM     21  H   LIG d   1      -7.766  74.300 117.427  0.00  0.00    -0.090 HD
ENDBRANCH   5  18
BRANCH   3  22
ATOM     22  C   LIG d   1     -11.161  77.202 119.340  0.00  0.00     0.382 C 
ATOM     23  O   LIG d   1     -11.924  76.415 118.730  0.00  0.00    -0.241 OA
ATOM     24  O   LIG d   1     -11.613  77.896 120.271  0.00  0.00    -0.241 OA
ENDBRANCH   3  22
TORSDOF 7
ENDMDL
