MODEL 1
REMARK VINA RESULT:      -5.6      0.000      0.000
REMARK  7 active torsions:
REMARK  status: ('A' for Active; 'I' for Inactive)
REMARK    1  A    between atoms: C_2  and  C_3 
REMARK    2  A    between atoms: C_3  and  O_6 
REMARK    3  A    between atoms: C_3  and  C_4 
REMARK    4  A    between atoms: C_7  and  O_6 
REMARK    5  A    between atoms: C_9  and  C_10 
REMARK    6  A    between atoms: N_15  and  C_14 
REMARK    7  A    between atoms: N_20  and  C_19 
REMARK       I    between atoms: C_22  and  N_20 
ROOT
ATOM      1  C   LIG d   1      -3.869  74.720 116.879  0.00  0.00     0.161 C 
ATOM      2  C   LIG d   1      -4.216  75.347 115.671  0.00  0.00     0.016 C 
ATOM      3  C   LIG d   1      -3.267  75.752 114.704  0.00  0.00     0.038 C 
ATOM      4  C   LIG d   1      -1.908  75.419 114.814  0.00  0.00     0.028 C 
ATOM      5  C   LIG d   1      -1.445  75.231 116.254  0.00  0.00    -0.047 C 
ATOM      6  C   LIG d   1      -2.402  74.248 116.966  0.00  0.00     0.091 C 
ENDROOT
BRANCH   1   7
ATOM      7  O   LIG d   1      -4.765  73.620 117.133  0.00  0.00    -0.368 OA
BRANCH   7   8
ATOM      8  C   LIG d   1      -6.042  73.667 116.450  0.00  0.00     0.119 C 
BRANCH   8   9
ATOM      9  C   LIG d   1      -7.123  73.952 117.511  0.00  0.00     0.028 C 
ATOM     10  C   LIG d   1      -7.558  75.427 117.523  0.00  0.00     0.006 C 
ENDBRANCH   8   9
BRANCH   8  11
ATOM     11  C   LIG d   1      -6.407  72.303 115.856  0.00  0.00     0.028 C 
ATOM     12  C   LIG d   1      -7.780  71.797 116.325  0.00  0.00     0.006 C 
ENDBRANCH   8  11
ENDBRANCH   7   8
ENDBRANCH   1   7
BRANCH   6  13
ATOM     13  N   LIG d   1      -2.070  74.074 118.404  0.00  0.00    -0.311 N 
ATOM     14  C   LIG d   1      -1.203  73.168 118.851  0.00  0.00     0.210 C 
ATOM     15  C   LIG d   1      -1.021  73.142 120.372  0.00  0.00     0.109 C 
ATOM     16  O   LIG d   1      -0.542  72.405 118.130  0.00  0.00    -0.276 OA
ATOM     17  H   LIG d   1      -2.537  74.673 119.056  0.00  0.00     0.149 HD
ENDBRANCH   6  13
BRANCH   5  18
ATOM     18  N   LIG d   1      -0.050  74.753 116.215  0.00  0.00     0.381 N 
ATOM     19  H   LIG d   1       0.040  74.026 115.533  0.00  0.00    -0.090 HD
ATOM     20  H   LIG d   1       0.189  74.374 117.114  0.00  0.00    -0.090 HD
ATOM     21  H   LIG d   1       0.562  75.506 115.991  0.00  0.00    -0.090 HD
ENDBRANCH   5  18
BRANCH   3  22
ATOM     22  C   LIG d   1      -3.669  76.534 113.632  0.00  0.00     0.382 C 
ATOM     23  O   LIG d   1      -4.842  76.446 113.197  0.00  0.00    -0.241 OA
ATOM     24  O   LIG d   1      -2.860  77.293 113.066  0.00  0.00    -0.241 OA
ENDBRANCH   3  22
TORSDOF 7
ENDMDL
MODEL 2
REMARK VINA RESULT:      -5.6      4.162      6.220
REMARK  7 active torsions:
REMARK  status: ('A' for Active; 'I' for Inactive)
REMARK    1  A    between atoms: C_2  and  C_3 
REMARK    2  A    between atoms: C_3  and  O_6 
REMARK    3  A    between atoms: C_3  and  C_4 
REMARK    4  A    between atoms: C_7  and  O_6 
REMARK    5  A    between atoms: C_9  and  C_10 
REMARK    6  A    between atoms: N_15  and  C_14 
REMARK    7  A    between atoms: N_20  and  C_19 
REMARK       I    between atoms: C_22  and  N_20 
ROOT
ATOM      1  C   LIG d   1      -8.626  75.169 117.501  0.00  0.00     0.161 C 
ATOM      2  C   LIG d   1      -8.529  73.813 117.148  0.00  0.00     0.016 C 
ATOM      3  C   LIG d   1      -7.298  73.142 116.966  0.00  0.00     0.038 C 
ATOM      4  C   LIG d   1      -6.071  73.748 117.273  0.00  0.00     0.028 C 
ATOM      5  C   LIG d   1      -6.097  75.267 117.147  0.00  0.00    -0.047 C 
ATOM      6  C   LIG d   1      -7.299  75.817 117.949  0.00  0.00     0.091 C 
ENDROOT
BRANCH   1   7
ATOM      7  O   LIG d   1      -9.634  75.340 118.516  0.00  0.00    -0.368 OA
BRANCH   7   8
ATOM      8  C   LIG d   1     -10.780  76.146 118.148  0.00  0.00     0.119 C 
BRANCH   8   9
ATOM      9  C   LIG d   1     -11.086  77.085 119.331  0.00  0.00     0.028 C 
ATOM     10  C   LIG d   1     -10.650  78.534 119.058  0.00  0.00     0.006 C 
ENDBRANCH   8   9
BRANCH   8  11
ATOM     11  C   LIG d   1     -12.035  75.286 117.978  0.00  0.00     0.028 C 
ATOM     12  C   LIG d   1     -12.920  75.267 119.235  0.00  0.00     0.006 C 
ENDBRANCH   8  11
ENDBRANCH   7   8
ENDBRANCH   1   7
BRANCH   6  13
ATOM     13  N   LIG d   1      -7.447  77.289 117.810  0.00  0.00    -0.311 N 
ATOM     14  C   LIG d   1      -6.918  78.163 118.664  0.00  0.00     0.210 C 
ATOM     15  C   LIG d   1      -7.208  79.634 118.347  0.00  0.00     0.109 C 
ATOM     16  O   LIG d   1      -6.210  77.862 119.637  0.00  0.00    -0.276 OA
ATOM     17  H   LIG d   1      -7.980  77.622 117.031  0.00  0.00     0.149 HD
ENDBRANCH   6  13
BRANCH   5  18
ATOM     18  N   LIG d   1      -4.799  75.776 117.628  0.00  0.00     0.381 N 
ATOM     19  H   LIG d   1      -4.894  76.730 117.915  0.00  0.00    -0.090 HD
ATOM     20  H   LIG d   1      -4.135  75.738 116.875  0.00  0.00    -0.090 HD
ATOM     21  H   LIG d   1      -4.477  75.223 118.392  0.00  0.00    -0.090 HD
ENDBRANCH   5  18
BRANCH   3  22
ATOM     22  C   LIG d   1      -7.286  71.862 116.432  0.00  0.00     0.382 C 
ATOM     23  O   LIG d   1      -7.853  70.923 117.042  0.00  0.00    -0.241 OA
ATOM     24  O   LIG d   1      -6.677  71.626 115.372  0.00  0.00    -0.241 OA
ENDBRANCH   3  22
TORSDOF 7
ENDMDL
MODEL 3
REMARK VINA RESULT:      -5.4      3.284      4.589
REMARK  7 active torsions:
REMARK  status: ('A' for Active; 'I' for Inactive)
REMARK    1  A    between atoms: C_2  and  C_3 
REMARK    2  A    between atoms: C_3  and  O_6 
REMARK    3  A    between atoms: C_3  and  C_4 
REMARK    4  A    between atoms: C_7  and  O_6 
REMARK    5  A    between atoms: C_9  and  C_10 
REMARK    6  A    between atoms: N_15  and  C_14 
REMARK    7  A    between atoms: N_20  and  C_19 
REMARK       I    between atoms: C_22  and  N_20 
ROOT
ATOM      1  C   LIG d   1      -6.523  74.790 117.151  0.00  0.00     0.161 C 
ATOM      2  C   LIG d   1      -5.627  74.340 116.167  0.00  0.00     0.016 C 
ATOM      3  C   LIG d   1      -4.643  75.164 115.575  0.00  0.00     0.038 C 
ATOM      4  C   LIG d   1      -4.386  76.462 116.039  0.00  0.00     0.028 C 
ATOM      5  C   LIG d   1      -5.598  77.126 116.684  0.00  0.00    -0.047 C 
ATOM      6  C   LIG d   1      -6.185  76.172 117.749  0.00  0.00     0.091 C 
ENDROOT
BRANCH   1   7
ATOM      7  O   LIG d   1      -6.635  73.805 118.197  0.00  0.00    -0.368 OA
BRANCH   7   8
ATOM      8  C   LIG d   1      -7.957  73.251 118.412  0.00  0.00     0.119 C 
BRANCH   8   9
ATOM      9  C   LIG d   1      -7.854  71.725 118.229  0.00  0.00     0.028 C 
ATOM     10  C   LIG d   1      -7.748  71.317 116.750  0.00  0.00     0.006 C 
ENDBRANCH   8   9
BRANCH   8  11
ATOM     11  C   LIG d   1      -8.940  73.723 117.337  0.00  0.00     0.028 C 
ATOM     12  C   LIG d   1     -10.214  74.347 117.928  0.00  0.00     0.006 C 
ENDBRANCH   8  11
ENDBRANCH   7   8
ENDBRANCH   1   7
BRANCH   6  13
ATOM     13  N   LIG d   1      -7.425  76.709 118.369  0.00  0.00    -0.311 N 
ATOM     14  C   LIG d   1      -7.623  76.760 119.685  0.00  0.00     0.210 C 
ATOM     15  C   LIG d   1      -8.978  77.331 120.113  0.00  0.00     0.109 C 
ATOM     16  O   LIG d   1      -6.792  76.416 120.540  0.00  0.00    -0.276 OA
ATOM     17  H   LIG d   1      -8.139  77.039 117.750  0.00  0.00     0.149 HD
ENDBRANCH   6  13
BRANCH   5  18
ATOM     18  N   LIG d   1      -5.154  78.416 117.245  0.00  0.00     0.381 N 
ATOM     19  H   LIG d   1      -5.134  79.110 116.524  0.00  0.00    -0.090 HD
ATOM     20  H   LIG d   1      -4.223  78.310 117.606  0.00  0.00    -0.090 HD
ATOM     21  H   LIG d   1      -5.771  78.701 117.973  0.00  0.00    -0.090 HD
ENDBRANCH   5  18
BRANCH   3  22
ATOM     22  C   LIG d   1      -3.929  74.703 114.479  0.00  0.00     0.382 C 
ATOM     23  O   LIG d   1      -2.680  74.595 114.544  0.00  0.00    -0.241 OA
ATOM     24  O   LIG d   1      -4.513  74.435 113.412  0.00  0.00    -0.241 OA
ENDBRANCH   3  22
TORSDOF 7
ENDMDL
MODEL 4
REMARK VINA RESULT:      -5.4      4.021      6.915
REMARK  7 active torsions:
REMARK  status: ('A' for Active; 'I' for Inactive)
REMARK    1  A    between atoms: C_2  and  C_3 
REMARK    2  A    between atoms: C_3  and  O_6 
REMARK    3  A    between atoms: C_3  and  C_4 
REMARK    4  A    between atoms: C_7  and  O_6 
REMARK    5  A    between atoms: C_9  and  C_10 
REMARK    6  A    between atoms: N_15  and  C_14 
REMARK    7  A    between atoms: N_20  and  C_19 
REMARK       I    between atoms: C_22  and  N_20 
ROOT
ATOM      1  C   LIG d   1      -6.921  75.258 117.736  0.00  0.00     0.161 C 
ATOM      2  C   LIG d   1      -6.697  74.012 117.126  0.00  0.00     0.016 C 
ATOM      3  C   LIG d   1      -7.724  73.074 116.874  0.00  0.00     0.038 C 
ATOM      4  C   LIG d   1      -9.077  73.382 117.079  0.00  0.00     0.028 C 
ATOM      5  C   LIG d   1      -9.302  74.432 118.162  0.00  0.00    -0.047 C 
ATOM      6  C   LIG d   1      -8.406  75.657 117.866  0.00  0.00     0.091 C 
ENDROOT
BRANCH   1   7
ATOM      7  O   LIG d   1      -6.185  76.282 117.039  0.00  0.00    -0.368 OA
BRANCH   7   8
ATOM      8  C   LIG d   1      -4.910  75.883 116.481  0.00  0.00     0.119 C 
BRANCH   8   9
ATOM      9  C   LIG d   1      -3.828  76.784 117.107  0.00  0.00     0.028 C 
ATOM     10  C   LIG d   1      -3.435  77.955 116.190  0.00  0.00     0.006 C 
ENDBRANCH   8   9
BRANCH   8  11
ATOM     11  C   LIG d   1      -4.848  76.162 114.976  0.00  0.00     0.028 C 
ATOM     12  C   LIG d   1      -4.559  74.901 114.147  0.00  0.00     0.006 C 
ENDBRANCH   8  11
ENDBRANCH   7   8
ENDBRANCH   1   7
BRANCH   6  13
ATOM     13  N   LIG d   1      -8.501  76.698 118.922  0.00  0.00    -0.311 N 
ATOM     14  C   LIG d   1      -9.403  77.677 118.907  0.00  0.00     0.210 C 
ATOM     15  C   LIG d   1      -9.315  78.656 120.082  0.00  0.00     0.109 C 
ATOM     16  O   LIG d   1     -10.289  77.810 118.049  0.00  0.00    -0.276 OA
ATOM     17  H   LIG d   1      -7.841  76.647 119.674  0.00  0.00     0.149 HD
ENDBRANCH   6  13
BRANCH   5  18
ATOM     18  N   LIG d   1     -10.740  74.758 118.175  0.00  0.00     0.381 N 
ATOM     19  H   LIG d   1     -11.150  74.446 119.032  0.00  0.00    -0.090 HD
ATOM     20  H   LIG d   1     -11.190  74.276 117.416  0.00  0.00    -0.090 HD
ATOM     21  H   LIG d   1     -10.868  75.741 118.076  0.00  0.00    -0.090 HD
ENDBRANCH   5  18
BRANCH   3  22
ATOM     22  C   LIG d   1      -7.397  71.795 116.448  0.00  0.00     0.382 C 
ATOM     23  O   LIG d   1      -6.659  71.638 115.446  0.00  0.00    -0.241 OA
ATOM     24  O   LIG d   1      -7.866  70.797 117.027  0.00  0.00    -0.241 OA
ENDBRANCH   3  22
TORSDOF 7
ENDMDL
MODEL 5
REMARK VINA RESULT:      -5.3      4.636      7.444
REMARK  7 active torsions:
REMARK  status: ('A' for Active; 'I' for Inactive)
REMARK    1  A    between atoms: C_2  and  C_3 
REMARK    2  A    between atoms: C_3  and  O_6 
REMARK    3  A    between atoms: C_3  and  C_4 
REMARK    4  A    between atoms: C_7  and  O_6 
REMARK    5  A    between atoms: C_9  and  C_10 
REMARK    6  A    between atoms: N_15  and  C_14 
REMARK    7  A    between atoms: N_20  and  C_19 
REMARK       I    between atoms: C_22  and  N_20 
ROOT
ATOM      1  C   LIG d   1      -8.039  74.494 119.358  0.00  0.00     0.161 C 
ATOM      2  C   LIG d   1      -7.518  73.418 118.621  0.00  0.00     0.016 C 
ATOM      3  C   LIG d   1      -8.078  72.963 117.405  0.00  0.00     0.038 C 
ATOM      4  C   LIG d   1      -9.115  73.655 116.762  0.00  0.00     0.028 C 
ATOM      5  C   LIG d   1      -9.999  74.447 117.719  0.00  0.00    -0.047 C 
ATOM      6  C   LIG d   1      -9.102  75.331 118.615  0.00  0.00     0.091 C 
ENDROOT
BRANCH   1   7
ATOM      7  O   LIG d   1      -6.965  75.340 119.814  0.00  0.00    -0.368 OA
BRANCH   7   8
ATOM      8  C   LIG d   1      -6.294  76.123 118.796  0.00  0.00     0.119 C 
BRANCH   8   9
ATOM      9  C   LIG d   1      -4.795  75.771 118.854  0.00  0.00     0.028 C 
ATOM     10  C   LIG d   1      -4.328  74.990 117.614  0.00  0.00     0.006 C 
ENDBRANCH   8   9
BRANCH   8  11
ATOM     11  C   LIG d   1      -6.371  77.621 119.106  0.00  0.00     0.028 C 
ATOM     12  C   LIG d   1      -7.039  78.429 117.982  0.00  0.00     0.006 C 
ENDBRANCH   8  11
ENDBRANCH   7   8
ENDBRANCH   1   7
BRANCH   6  13
ATOM     13  N   LIG d   1      -9.882  76.077 119.638  0.00  0.00    -0.311 N 
ATOM     14  C   LIG d   1     -10.473  77.246 119.400  0.00  0.00     0.210 C 
ATOM     15  C   LIG d   1     -11.209  77.854 120.598  0.00  0.00     0.109 C 
ATOM     16  O   LIG d   1     -10.485  77.822 118.301  0.00  0.00    -0.276 OA
ATOM     17  H   LIG d   1      -9.950  75.666 120.548  0.00  0.00     0.149 HD
ENDBRANCH   6  13
BRANCH   5  18
ATOM     18  N   LIG d   1     -10.950  75.228 116.904  0.00  0.00     0.381 N 
ATOM     19  H   LIG d   1     -10.499  75.547 116.070  0.00  0.00    -0.090 HD
ATOM     20  H   LIG d   1     -11.245  76.031 117.430  0.00  0.00    -0.090 HD
ATOM     21  H   LIG d   1     -11.739  74.666 116.670  0.00  0.00    -0.090 HD
ENDBRANCH   5  18
BRANCH   3  22
ATOM     22  C   LIG d   1      -7.626  71.780 116.840  0.00  0.00     0.382 C 
ATOM     23  O   LIG d   1      -8.000  70.678 117.309  0.00  0.00    -0.241 OA
ATOM     24  O   LIG d   1      -6.814  71.801 115.896  0.00  0.00    -0.241 OA
ENDBRANCH   3  22
TORSDOF 7
ENDMDL
MODEL 6
REMARK VINA RESULT:      -5.3      3.937      6.534
REMARK  7 active torsions:
REMARK  status: ('A' for Active; 'I' for Inactive)
REMARK    1  A    between atoms: C_2  and  C_3 
REMARK    2  A    between atoms: C_3  and  O_6 
REMARK    3  A    between atoms: C_3  and  C_4 
REMARK    4  A    between atoms: C_7  and  O_6 
REMARK    5  A    between atoms: C_9  and  C_10 
REMARK    6  A    between atoms: N_15  and  C_14 
REMARK    7  A    between atoms: N_20  and  C_19 
REMARK       I    between atoms: C_22  and  N_20 
ROOT
ATOM      1  C   LIG d   1      -7.998  75.296 117.839  0.00  0.00     0.161 C 
ATOM      2  C   LIG d   1      -9.372  75.004 117.823  0.00  0.00     0.016 C 
ATOM      3  C   LIG d   1     -10.377  75.978 118.028  0.00  0.00     0.038 C 
ATOM      4  C   LIG d   1     -10.077  77.346 118.114  0.00  0.00     0.028 C 
ATOM      5  C   LIG d   1      -8.674  77.627 118.640  0.00  0.00    -0.047 C 
ATOM      6  C   LIG d   1      -7.656  76.801 117.821  0.00  0.00     0.091 C 
ENDROOT
BRANCH   1   7
ATOM      7  O   LIG d   1      -7.342  74.620 116.748  0.00  0.00    -0.368 OA
BRANCH   7   8
ATOM      8  C   LIG d   1      -6.495  73.501 117.109  0.00  0.00     0.119 C 
BRANCH   8   9
ATOM      9  C   LIG d   1      -5.046  73.881 116.745  0.00  0.00     0.028 C 
ATOM     10  C   LIG d   1      -4.934  74.481 115.334  0.00  0.00     0.006 C 
ENDBRANCH   8   9
BRANCH   8  11
ATOM     11  C   LIG d   1      -6.815  72.265 116.263  0.00  0.00     0.028 C 
ATOM     12  C   LIG d   1      -7.772  71.292 116.969  0.00  0.00     0.006 C 
ENDBRANCH   8  11
ENDBRANCH   7   8
ENDBRANCH   1   7
BRANCH   6  13
ATOM     13  N   LIG d   1      -6.266  76.953 118.325  0.00  0.00    -0.311 N 
ATOM     14  C   LIG d   1      -5.277  77.474 117.601  0.00  0.00     0.210 C 
ATOM     15  C   LIG d   1      -3.917  77.520 118.304  0.00  0.00     0.109 C 
ATOM     16  O   LIG d   1      -5.404  77.932 116.456  0.00  0.00    -0.276 OA
ATOM     17  H   LIG d   1      -6.082  76.636 119.256  0.00  0.00     0.149 HD
ENDBRANCH   6  13
BRANCH   5  18
ATOM     18  N   LIG d   1      -8.446  79.081 118.548  0.00  0.00     0.381 N 
ATOM     19  H   LIG d   1      -8.439  79.363 117.588  0.00  0.00    -0.090 HD
ATOM     20  H   LIG d   1      -7.549  79.296 118.947  0.00  0.00    -0.090 HD
ATOM     21  H   LIG d   1      -9.162  79.570 119.040  0.00  0.00    -0.090 HD
ENDBRANCH   5  18
BRANCH   3  22
ATOM     22  C   LIG d   1     -11.695  75.581 118.190  0.00  0.00     0.382 C 
ATOM     23  O   LIG d   1     -11.956  74.447 118.659  0.00  0.00    -0.241 OA
ATOM     24  O   LIG d   1     -12.628  76.324 117.830  0.00  0.00    -0.241 OA
ENDBRANCH   3  22
TORSDOF 7
ENDMDL
MODEL 7
REMARK VINA RESULT:      -5.2      4.317      6.875
REMARK  7 active torsions:
REMARK  status: ('A' for Active; 'I' for Inactive)
REMARK    1  A    between atoms: C_2  and  C_3 
REMARK    2  A    between atoms: C_3  and  O_6 
REMARK    3  A    between atoms: C_3  and  C_4 
REMARK    4  A    between atoms: C_7  and  O_6 
REMARK    5  A    between atoms: C_9  and  C_10 
REMARK    6  A    between atoms: N_15  and  C_14 
REMARK    7  A    between atoms: N_20  and  C_19 
REMARK       I    between atoms: C_22  and  N_20 
ROOT
ATOM      1  C   LIG d   1      -7.710  76.030 117.898  0.00  0.00     0.161 C 
ATOM      2  C   LIG d   1      -7.972  77.354 118.285  0.00  0.00     0.016 C 
ATOM      3  C   LIG d   1      -9.275  77.894 118.380  0.00  0.00     0.038 C 
ATOM      4  C   LIG d   1     -10.420  77.096 118.238  0.00  0.00     0.028 C 
ATOM      5  C   LIG d   1     -10.202  75.874 117.353  0.00  0.00    -0.047 C 
ATOM      6  C   LIG d   1      -8.951  75.113 117.848  0.00  0.00     0.091 C 
ENDROOT
BRANCH   1   7
ATOM      7  O   LIG d   1      -6.701  75.460 118.756  0.00  0.00    -0.368 OA
BRANCH   7   8
ATOM      8  C   LIG d   1      -5.431  75.154 118.130  0.00  0.00     0.119 C 
BRANCH   8   9
ATOM      9  C   LIG d   1      -4.378  76.107 118.728  0.00  0.00     0.028 C 
ATOM     10  C   LIG d   1      -4.111  77.325 117.828  0.00  0.00     0.006 C 
ENDBRANCH   8   9
BRANCH   8  11
ATOM     11  C   LIG d   1      -5.459  75.468 116.631  0.00  0.00     0.028 C 
ATOM     12  C   LIG d   1      -5.184  74.233 115.759  0.00  0.00     0.006 C 
ENDBRANCH   8  11
ENDBRANCH   7   8
ENDBRANCH   1   7
BRANCH   6  13
ATOM     13  N   LIG d   1      -8.616  73.950 116.985  0.00  0.00    -0.311 N 
ATOM     14  C   LIG d   1      -8.247  72.764 117.465  0.00  0.00     0.210 C 
ATOM     15  C   LIG d   1      -7.928  71.708 116.402  0.00  0.00     0.109 C 
ATOM     16  O   LIG d   1      -8.185  72.476 118.669  0.00  0.00    -0.276 OA
ATOM     17  H   LIG d   1      -8.671  74.087 115.995  0.00  0.00     0.149 HD
ENDBRANCH   6  13
BRANCH   5  18
ATOM     18  N   LIG d   1     -11.431  75.061 117.404  0.00  0.00     0.381 N 
ATOM     19  H   LIG d   1     -11.868  75.163 118.298  0.00  0.00    -0.090 HD
ATOM     20  H   LIG d   1     -11.187  74.094 117.281  0.00  0.00    -0.090 HD
ATOM     21  H   LIG d   1     -12.059  75.347 116.684  0.00  0.00    -0.090 HD
ENDBRANCH   5  18
BRANCH   3  22
ATOM     22  C   LIG d   1      -9.442  79.256 118.579  0.00  0.00     0.382 C 
ATOM     23  O   LIG d   1      -8.462  79.966 118.913  0.00  0.00    -0.241 OA
ATOM     24  O   LIG d   1     -10.568  79.777 118.472  0.00  0.00    -0.241 OA
ENDBRANCH   3  22
TORSDOF 7
ENDMDL
MODEL 8
REMARK VINA RESULT:      -5.1      3.380      5.676
REMARK  7 active torsions:
REMARK  status: ('A' for Active; 'I' for Inactive)
REMARK    1  A    between atoms: C_2  and  C_3 
REMARK    2  A    between atoms: C_3  and  O_6 
REMARK    3  A    between atoms: C_3  and  C_4 
REMARK    4  A    between atoms: C_7  and  O_6 
REMARK    5  A    between atoms: C_9  and  C_10 
REMARK    6  A    between atoms: N_15  and  C_14 
REMARK    7  A    between atoms: N_20  and  C_19 
REMARK       I    between atoms: C_22  and  N_20 
ROOT
ATOM      1  C   LIG d   1      -7.469  74.612 118.743  0.00  0.00     0.161 C 
ATOM      2  C   LIG d   1      -8.816  74.704 118.358  0.00  0.00     0.016 C 
ATOM      3  C   LIG d   1      -9.436  75.916 117.977  0.00  0.00     0.038 C 
ATOM      4  C   LIG d   1      -8.706  77.101 117.809  0.00  0.00     0.028 C 
ATOM      5  C   LIG d   1      -7.451  77.167 118.672  0.00  0.00    -0.047 C 
ATOM      6  C   LIG d   1      -6.628  75.875 118.460  0.00  0.00     0.091 C 
ENDROOT
BRANCH   1   7
ATOM      7  O   LIG d   1      -6.862  73.458 118.129  0.00  0.00    -0.368 OA
BRANCH   7   8
ATOM      8  C   LIG d   1      -6.679  73.522 116.693  0.00  0.00     0.119 C 
BRANCH   8   9
ATOM      9  C   LIG d   1      -7.121  72.166 116.110  0.00  0.00     0.028 C 
ATOM     10  C   LIG d   1      -7.775  71.258 117.165  0.00  0.00     0.006 C 
ENDBRANCH   8   9
BRANCH   8  11
ATOM     11  C   LIG d   1      -5.199  73.659 116.325  0.00  0.00     0.028 C 
ATOM     12  C   LIG d   1      -4.959  74.658 115.182  0.00  0.00     0.006 C 
ENDBRANCH   8  11
ENDBRANCH   7   8
ENDBRANCH   1   7
BRANCH   6  13
ATOM     13  N   LIG d   1      -5.425  75.820 119.331  0.00  0.00    -0.311 N 
ATOM     14  C   LIG d   1      -4.225  76.254 118.952  0.00  0.00     0.210 C 
ATOM     15  C   LIG d   1      -3.116  76.086 119.996  0.00  0.00     0.109 C 
ATOM     16  O   LIG d   1      -3.979  76.792 117.862  0.00  0.00    -0.276 OA
ATOM     17  H   LIG d   1      -5.541  75.426 120.244  0.00  0.00     0.149 HD
ENDBRANCH   6  13
BRANCH   5  18
ATOM     18  N   LIG d   1      -6.715  78.389 118.297  0.00  0.00     0.381 N 
ATOM     19  H   LIG d   1      -6.648  78.451 117.301  0.00  0.00    -0.090 HD
ATOM     20  H   LIG d   1      -5.785  78.337 118.673  0.00  0.00    -0.090 HD
ATOM     21  H   LIG d   1      -7.182  79.192 118.657  0.00  0.00    -0.090 HD
ENDBRANCH   5  18
BRANCH   3  22
ATOM     22  C   LIG d   1     -10.811  75.958 117.797  0.00  0.00     0.382 C 
ATOM     23  O   LIG d   1     -11.440  77.020 118.021  0.00  0.00    -0.241 OA
ATOM     24  O   LIG d   1     -11.435  74.935 117.458  0.00  0.00    -0.241 OA
ENDBRANCH   3  22
TORSDOF 7
ENDMDL
MODEL 9
REMARK VINA RESULT:      -5.1     12.934     15.782
REMARK  7 active torsions:
REMARK  status: ('A' for Active; 'I' for Inactive)
REMARK    1  A    between atoms: C_2  and  C_3 
REMARK    2  A    between atoms: C_3  and  O_6 
REMARK    3  A    between atoms: C_3  and  C_4 
REMARK    4  A    between atoms: C_7  and  O_6 
REMARK    5  A    between atoms: C_9  and  C_10 
REMARK    6  A    between atoms: N_15  and  C_14 
REMARK    7  A    between atoms: N_20  and  C_19 
REMARK       I    between atoms: C_22  and  N_20 
ROOT
ATOM      1  C   LIG d   1     -15.898  65.324 117.370  0.00  0.00     0.161 C 
ATOM      2  C   LIG d   1     -14.832  66.165 117.011  0.00  0.00     0.016 C 
ATOM      3  C   LIG d   1     -15.010  67.467 116.489  0.00  0.00     0.038 C 
ATOM      4  C   LIG d   1     -16.273  68.076 116.431  0.00  0.00     0.028 C 
ATOM      5  C   LIG d   1     -17.421  67.081 116.310  0.00  0.00    -0.047 C 
ATOM      6  C   LIG d   1     -17.278  66.013 117.419  0.00  0.00     0.091 C 
ENDROOT
BRANCH   1   7
ATOM      7  O   LIG d   1     -15.613  64.684 118.630  0.00  0.00    -0.368 OA
BRANCH   7   8
ATOM      8  C   LIG d   1     -14.599  65.316 119.450  0.00  0.00     0.119 C 
BRANCH   8   9
ATOM      9  C   LIG d   1     -13.683  64.202 119.992  0.00  0.00     0.028 C 
ATOM     10  C   LIG d   1     -13.190  63.256 118.885  0.00  0.00     0.006 C 
ENDBRANCH   8   9
BRANCH   8  11
ATOM     11  C   LIG d   1     -15.214  65.974 120.689  0.00  0.00     0.028 C 
ATOM     12  C   LIG d   1     -15.554  67.456 120.468  0.00  0.00     0.006 C 
ENDBRANCH   8  11
ENDBRANCH   7   8
ENDBRANCH   1   7
BRANCH   6  13
ATOM     13  N   LIG d   1     -18.314  64.952 117.321  0.00  0.00    -0.311 N 
ATOM     14  C   LIG d   1     -19.466  64.988 117.990  0.00  0.00     0.210 C 
ATOM     15  C   LIG d   1     -20.384  63.783 117.761  0.00  0.00     0.109 C 
ATOM     16  O   LIG d   1     -19.827  65.918 118.725  0.00  0.00    -0.276 OA
ATOM     17  H   LIG d   1     -18.116  64.175 116.722  0.00  0.00     0.149 HD
ENDBRANCH   6  13
BRANCH   5  18
ATOM     18  N   LIG d   1     -18.682  67.841 116.400  0.00  0.00     0.381 N 
ATOM     19  H   LIG d   1     -19.444  67.272 116.090  0.00  0.00    -0.090 HD
ATOM     20  H   LIG d   1     -18.621  68.642 115.796  0.00  0.00    -0.090 HD
ATOM     21  H   LIG d   1     -18.837  68.135 117.339  0.00  0.00    -0.090 HD
ENDBRANCH   5  18
BRANCH   3  22
ATOM     22  C   LIG d   1     -13.921  68.158 115.979  0.00  0.00     0.382 C 
ATOM     23  O   LIG d   1     -14.087  69.008 115.072  0.00  0.00    -0.241 OA
ATOM     24  O   LIG d   1     -12.770  67.910 116.385  0.00  0.00    -0.241 OA
ENDBRANCH   3  22
TORSDOF 7
ENDMDL
