MODEL 1
REMARK VINA RESULT:      -5.6      0.000      0.000
REMARK  7 active torsions:
REMARK  status: ('A' for Active; 'I' for Inactive)
REMARK    1  A    between atoms: C_2  and  C_3 
REMARK    2  A    between atoms: C_3  and  O_6 
REMARK    3  A    between atoms: C_3  and  C_4 
REMARK    4  A    between atoms: C_7  and  O_6 
REMARK    5  A    between atoms: C_9  and  C_10 
REMARK    6  A    between atoms: N_15  and  C_14 
REMARK    7  A    between atoms: N_20  and  C_19 
REMARK       I    between atoms: C_22  and  N_20 
ROOT
ATOM      1  C   LIG d   1      -5.061  91.643 117.380  0.00  0.00     0.161 C 
ATOM      2  C   LIG d   1      -5.442  90.984 116.200  0.00  0.00     0.016 C 
ATOM      3  C   LIG d   1      -6.364  91.522 115.272  0.00  0.00     0.038 C 
ATOM      4  C   LIG d   1      -6.854  92.831 115.387  0.00  0.00     0.028 C 
ATOM      5  C   LIG d   1      -6.888  93.340 116.824  0.00  0.00    -0.047 C 
ATOM      6  C   LIG d   1      -5.500  93.119 117.468  0.00  0.00     0.091 C 
ENDROOT
BRANCH   1   7
ATOM      7  O   LIG d   1      -3.635  91.533 117.562  0.00  0.00    -0.368 OA
BRANCH   7   8
ATOM      8  C   LIG d   1      -3.190  90.554 118.533  0.00  0.00     0.119 C 
BRANCH   8   9
ATOM      9  C   LIG d   1      -2.093  91.216 119.389  0.00  0.00     0.028 C 
ATOM     10  C   LIG d   1      -1.487  92.455 118.709  0.00  0.00     0.006 C 
ENDBRANCH   8   9
BRANCH   8  11
ATOM     11  C   LIG d   1      -2.510  89.363 117.852  0.00  0.00     0.028 C 
ATOM     12  C   LIG d   1      -2.144  88.242 118.838  0.00  0.00     0.006 C 
ENDBRANCH   8  11
ENDBRANCH   7   8
ENDBRANCH   1   7
BRANCH   6  13
ATOM     13  N   LIG d   1      -5.470  93.513 118.901  0.00  0.00    -0.311 N 
ATOM     14  C   LIG d   1      -4.649  94.441 119.389  0.00  0.00     0.210 C 
ATOM     15  C   LIG d   1      -4.768  94.680 120.898  0.00  0.00     0.109 C 
ATOM     16  O   LIG d   1      -3.856  95.111 118.711  0.00  0.00    -0.276 OA
ATOM     17  H   LIG d   1      -6.103  93.041 119.517  0.00  0.00     0.149 HD
ENDBRANCH   6  13
BRANCH   5  18
ATOM     18  N   LIG d   1      -7.288  94.759 116.785  0.00  0.00     0.381 N 
ATOM     19  H   LIG d   1      -7.797  94.991 117.614  0.00  0.00    -0.090 HD
ATOM     20  H   LIG d   1      -7.890  94.906 115.994  0.00  0.00    -0.090 HD
ATOM     21  H   LIG d   1      -6.481  95.339 116.709  0.00  0.00    -0.090 HD
ENDBRANCH   5  18
BRANCH   3  22
ATOM     22  C   LIG d   1      -6.834  90.731 114.234  0.00  0.00     0.382 C 
ATOM     23  O   LIG d   1      -6.600  89.499 114.229  0.00  0.00    -0.241 OA
ATOM     24  O   LIG d   1      -7.452  91.242 113.281  0.00  0.00    -0.241 OA
ENDBRANCH   3  22
TORSDOF 7
ENDMDL
MODEL 2
REMARK VINA RESULT:      -5.3      1.324      2.217
REMARK  7 active torsions:
REMARK  status: ('A' for Active; 'I' for Inactive)
REMARK    1  A    between atoms: C_2  and  C_3 
REMARK    2  A    between atoms: C_3  and  O_6 
REMARK    3  A    between atoms: C_3  and  C_4 
REMARK    4  A    between atoms: C_7  and  O_6 
REMARK    5  A    between atoms: C_9  and  C_10 
REMARK    6  A    between atoms: N_15  and  C_14 
REMARK    7  A    between atoms: N_20  and  C_19 
REMARK       I    between atoms: C_22  and  N_20 
ROOT
ATOM      1  C   LIG d   1      -5.770  92.240 118.671  0.00  0.00     0.161 C 
ATOM      2  C   LIG d   1      -5.966  91.349 117.603  0.00  0.00     0.016 C 
ATOM      3  C   LIG d   1      -6.566  91.722 116.378  0.00  0.00     0.038 C 
ATOM      4  C   LIG d   1      -6.874  93.058 116.081  0.00  0.00     0.028 C 
ATOM      5  C   LIG d   1      -7.158  93.904 117.317  0.00  0.00    -0.047 C 
ATOM      6  C   LIG d   1      -5.999  93.726 118.324  0.00  0.00     0.091 C 
ENDROOT
BRANCH   1   7
ATOM      7  O   LIG d   1      -4.454  92.052 119.228  0.00  0.00    -0.368 OA
BRANCH   7   8
ATOM      8  C   LIG d   1      -3.385  91.830 118.276  0.00  0.00     0.119 C 
BRANCH   8   9
ATOM      9  C   LIG d   1      -2.655  90.538 118.692  0.00  0.00     0.028 C 
ATOM     10  C   LIG d   1      -2.715  89.454 117.602  0.00  0.00     0.006 C 
ENDBRANCH   8   9
BRANCH   8  11
ATOM     11  C   LIG d   1      -2.328  92.936 118.357  0.00  0.00     0.028 C 
ATOM     12  C   LIG d   1      -2.458  93.792 119.627  0.00  0.00     0.006 C 
ENDBRANCH   8  11
ENDBRANCH   7   8
ENDBRANCH   1   7
BRANCH   6  13
ATOM     13  N   LIG d   1      -6.237  94.454 119.597  0.00  0.00    -0.311 N 
ATOM     14  C   LIG d   1      -5.761  95.673 119.845  0.00  0.00     0.210 C 
ATOM     15  C   LIG d   1      -6.107  96.233 121.228  0.00  0.00     0.109 C 
ATOM     16  O   LIG d   1      -5.114  96.357 119.038  0.00  0.00    -0.276 OA
ATOM     17  H   LIG d   1      -6.779  93.985 120.296  0.00  0.00     0.149 HD
ENDBRANCH   6  13
BRANCH   5  18
ATOM     18  N   LIG d   1      -7.328  95.300 116.872  0.00  0.00     0.381 N 
ATOM     19  H   LIG d   1      -6.461  95.792 116.960  0.00  0.00    -0.090 HD
ATOM     20  H   LIG d   1      -8.006  95.749 117.463  0.00  0.00    -0.090 HD
ATOM     21  H   LIG d   1      -7.636  95.321 115.925  0.00  0.00    -0.090 HD
ENDBRANCH   5  18
BRANCH   3  22
ATOM     22  C   LIG d   1      -6.899  90.747 115.451  0.00  0.00     0.382 C 
ATOM     23  O   LIG d   1      -7.870  90.925 114.676  0.00  0.00    -0.241 OA
ATOM     24  O   LIG d   1      -6.270  89.673 115.409  0.00  0.00    -0.241 OA
ENDBRANCH   3  22
TORSDOF 7
ENDMDL
MODEL 3
REMARK VINA RESULT:      -5.2     14.094     16.582
REMARK  7 active torsions:
REMARK  status: ('A' for Active; 'I' for Inactive)
REMARK    1  A    between atoms: C_2  and  C_3 
REMARK    2  A    between atoms: C_3  and  O_6 
REMARK    3  A    between atoms: C_3  and  C_4 
REMARK    4  A    between atoms: C_7  and  O_6 
REMARK    5  A    between atoms: C_9  and  C_10 
REMARK    6  A    between atoms: N_15  and  C_14 
REMARK    7  A    between atoms: N_20  and  C_19 
REMARK       I    between atoms: C_22  and  N_20 
ROOT
ATOM      1  C   LIG d   1      -2.876  76.785 116.525  0.00  0.00     0.161 C 
ATOM      2  C   LIG d   1      -3.024  77.833 115.601  0.00  0.00     0.016 C 
ATOM      3  C   LIG d   1      -1.988  78.262 114.740  0.00  0.00     0.038 C 
ATOM      4  C   LIG d   1      -0.772  77.568 114.639  0.00  0.00     0.028 C 
ATOM      5  C   LIG d   1      -0.396  76.817 115.911  0.00  0.00    -0.047 C 
ATOM      6  C   LIG d   1      -1.594  75.945 116.352  0.00  0.00     0.091 C 
ENDROOT
BRANCH   1   7
ATOM      7  O   LIG d   1      -4.040  75.936 116.491  0.00  0.00    -0.368 OA
BRANCH   7   8
ATOM      8  C   LIG d   1      -5.268  76.556 116.036  0.00  0.00     0.119 C 
BRANCH   8   9
ATOM      9  C   LIG d   1      -6.368  76.211 117.059  0.00  0.00     0.028 C 
ATOM     10  C   LIG d   1      -7.760  76.108 116.413  0.00  0.00     0.006 C 
ENDBRANCH   8   9
BRANCH   8  11
ATOM     11  C   LIG d   1      -5.742  75.949 114.712  0.00  0.00     0.028 C 
ATOM     12  C   LIG d   1      -4.849  74.793 114.233  0.00  0.00     0.006 C 
ENDBRANCH   8  11
ENDBRANCH   7   8
ENDBRANCH   1   7
BRANCH   6  13
ATOM     13  N   LIG d   1      -1.341  75.240 117.636  0.00  0.00    -0.311 N 
ATOM     14  C   LIG d   1      -0.725  74.062 117.716  0.00  0.00     0.210 C 
ATOM     15  C   LIG d   1      -0.584  73.502 119.135  0.00  0.00     0.109 C 
ATOM     16  O   LIG d   1      -0.254  73.443 116.750  0.00  0.00    -0.276 OA
ATOM     17  H   LIG d   1      -1.662  75.687 118.472  0.00  0.00     0.149 HD
ENDBRANCH   6  13
BRANCH   5  18
ATOM     18  N   LIG d   1       0.817  76.029 115.622  0.00  0.00     0.381 N 
ATOM     19  H   LIG d   1       1.348  76.477 114.902  0.00  0.00    -0.090 HD
ATOM     20  H   LIG d   1       0.544  75.120 115.293  0.00  0.00    -0.090 HD
ATOM     21  H   LIG d   1       1.370  75.941 116.446  0.00  0.00    -0.090 HD
ENDBRANCH   5  18
BRANCH   3  22
ATOM     22  C   LIG d   1      -2.148  79.421 113.997  0.00  0.00     0.382 C 
ATOM     23  O   LIG d   1      -3.300  79.851 113.746  0.00  0.00    -0.241 OA
ATOM     24  O   LIG d   1      -1.157  80.019 113.536  0.00  0.00    -0.241 OA
ENDBRANCH   3  22
TORSDOF 7
ENDMDL
MODEL 4
REMARK VINA RESULT:      -5.0     13.269     15.545
REMARK  7 active torsions:
REMARK  status: ('A' for Active; 'I' for Inactive)
REMARK    1  A    between atoms: C_2  and  C_3 
REMARK    2  A    between atoms: C_3  and  O_6 
REMARK    3  A    between atoms: C_3  and  C_4 
REMARK    4  A    between atoms: C_7  and  O_6 
REMARK    5  A    between atoms: C_9  and  C_10 
REMARK    6  A    between atoms: N_15  and  C_14 
REMARK    7  A    between atoms: N_20  and  C_19 
REMARK       I    between atoms: C_22  and  N_20 
ROOT
ATOM      1  C   LIG d   1      -6.847  76.793 117.391  0.00  0.00     0.161 C 
ATOM      2  C   LIG d   1      -8.214  76.890 117.699  0.00  0.00     0.016 C 
ATOM      3  C   LIG d   1      -8.858  78.110 118.010  0.00  0.00     0.038 C 
ATOM      4  C   LIG d   1      -8.204  79.345 117.885  0.00  0.00     0.028 C 
ATOM      5  C   LIG d   1      -6.693  79.252 118.067  0.00  0.00    -0.047 C 
ATOM      6  C   LIG d   1      -6.143  78.143 117.141  0.00  0.00     0.091 C 
ENDROOT
BRANCH   1   7
ATOM      7  O   LIG d   1      -6.662  75.915 116.263  0.00  0.00    -0.368 OA
BRANCH   7   8
ATOM      8  C   LIG d   1      -5.936  74.688 116.523  0.00  0.00     0.119 C 
BRANCH   8   9
ATOM      9  C   LIG d   1      -5.252  74.267 115.208  0.00  0.00     0.028 C 
ATOM     10  C   LIG d   1      -5.117  75.435 114.217  0.00  0.00     0.006 C 
ENDBRANCH   8   9
BRANCH   8  11
ATOM     11  C   LIG d   1      -6.889  73.540 116.871  0.00  0.00     0.028 C 
ATOM     12  C   LIG d   1      -6.562  72.244 116.112  0.00  0.00     0.006 C 
ENDBRANCH   8  11
ENDBRANCH   7   8
ENDBRANCH   1   7
BRANCH   6  13
ATOM     13  N   LIG d   1      -4.683  77.929 117.318  0.00  0.00    -0.311 N 
ATOM     14  C   LIG d   1      -3.782  78.205 116.377  0.00  0.00     0.210 C 
ATOM     15  C   LIG d   1      -2.332  77.890 116.758  0.00  0.00     0.109 C 
ATOM     16  O   LIG d   1      -4.043  78.711 115.275  0.00  0.00    -0.276 OA
ATOM     17  H   LIG d   1      -4.381  77.550 118.195  0.00  0.00     0.149 HD
ENDBRANCH   6  13
BRANCH   5  18
ATOM     18  N   LIG d   1      -6.126  80.583 117.775  0.00  0.00     0.381 N 
ATOM     19  H   LIG d   1      -5.668  80.568 116.885  0.00  0.00    -0.090 HD
ATOM     20  H   LIG d   1      -5.444  80.807 118.477  0.00  0.00    -0.090 HD
ATOM     21  H   LIG d   1      -6.849  81.268 117.773  0.00  0.00    -0.090 HD
ENDBRANCH   5  18
BRANCH   3  22
ATOM     22  C   LIG d   1     -10.158  78.099 118.490  0.00  0.00     0.382 C 
ATOM     23  O   LIG d   1     -10.604  79.090 119.117  0.00  0.00    -0.241 OA
ATOM     24  O   LIG d   1     -10.877  77.092 118.342  0.00  0.00    -0.241 OA
ENDBRANCH   3  22
TORSDOF 7
ENDMDL
MODEL 5
REMARK VINA RESULT:      -4.9      1.711      5.085
REMARK  7 active torsions:
REMARK  status: ('A' for Active; 'I' for Inactive)
REMARK    1  A    between atoms: C_2  and  C_3 
REMARK    2  A    between atoms: C_3  and  O_6 
REMARK    3  A    between atoms: C_3  and  C_4 
REMARK    4  A    between atoms: C_7  and  O_6 
REMARK    5  A    between atoms: C_9  and  C_10 
REMARK    6  A    between atoms: N_15  and  C_14 
REMARK    7  A    between atoms: N_20  and  C_19 
REMARK       I    between atoms: C_22  and  N_20 
ROOT
ATOM      1  C   LIG d   1      -5.194  93.348 117.995  0.00  0.00     0.161 C 
ATOM      2  C   LIG d   1      -5.038  94.189 119.109  0.00  0.00     0.016 C 
ATOM      3  C   LIG d   1      -5.962  95.200 119.457  0.00  0.00     0.038 C 
ATOM      4  C   LIG d   1      -7.191  95.341 118.796  0.00  0.00     0.028 C 
ATOM      5  C   LIG d   1      -7.163  94.846 117.354  0.00  0.00    -0.047 C 
ATOM      6  C   LIG d   1      -6.584  93.413 117.326  0.00  0.00     0.091 C 
ENDROOT
BRANCH   1   7
ATOM      7  O   LIG d   1      -4.876  91.990 118.359  0.00  0.00    -0.368 OA
BRANCH   7   8
ATOM      8  C   LIG d   1      -3.534  91.544 118.047  0.00  0.00     0.119 C 
BRANCH   8   9
ATOM      9  C   LIG d   1      -3.648  90.152 117.396  0.00  0.00     0.028 C 
ATOM     10  C   LIG d   1      -2.428  89.264 117.693  0.00  0.00     0.006 C 
ENDBRANCH   8   9
BRANCH   8  11
ATOM     11  C   LIG d   1      -2.708  91.330 119.319  0.00  0.00     0.028 C 
ATOM     12  C   LIG d   1      -1.649  92.424 119.532  0.00  0.00     0.006 C 
ENDBRANCH   8  11
ENDBRANCH   7   8
ENDBRANCH   1   7
BRANCH   6  13
ATOM     13  N   LIG d   1      -6.443  92.884 115.944  0.00  0.00    -0.311 N 
ATOM     14  C   LIG d   1      -6.812  91.655 115.588  0.00  0.00     0.210 C 
ATOM     15  C   LIG d   1      -6.561  91.305 114.118  0.00  0.00     0.109 C 
ATOM     16  O   LIG d   1      -7.352  90.832 116.343  0.00  0.00    -0.276 OA
ATOM     17  H   LIG d   1      -6.042  93.496 115.261  0.00  0.00     0.149 HD
ENDBRANCH   6  13
BRANCH   5  18
ATOM     18  N   LIG d   1      -8.539  94.923 116.829  0.00  0.00     0.381 N 
ATOM     19  H   LIG d   1      -9.185  95.028 117.586  0.00  0.00    -0.090 HD
ATOM     20  H   LIG d   1      -8.753  94.066 116.349  0.00  0.00    -0.090 HD
ATOM     21  H   LIG d   1      -8.623  95.693 116.202  0.00  0.00    -0.090 HD
ENDBRANCH   5  18
BRANCH   3  22
ATOM     22  C   LIG d   1      -5.642  96.111 120.452  0.00  0.00     0.382 C 
ATOM     23  O   LIG d   1      -6.541  96.817 120.969  0.00  0.00    -0.241 OA
ATOM     24  O   LIG d   1      -4.459  96.267 120.809  0.00  0.00    -0.241 OA
ENDBRANCH   3  22
TORSDOF 7
ENDMDL
MODEL 6
REMARK VINA RESULT:      -4.7      6.131      8.563
REMARK  7 active torsions:
REMARK  status: ('A' for Active; 'I' for Inactive)
REMARK    1  A    between atoms: C_2  and  C_3 
REMARK    2  A    between atoms: C_3  and  O_6 
REMARK    3  A    between atoms: C_3  and  C_4 
REMARK    4  A    between atoms: C_7  and  O_6 
REMARK    5  A    between atoms: C_9  and  C_10 
REMARK    6  A    between atoms: N_15  and  C_14 
REMARK    7  A    between atoms: N_20  and  C_19 
REMARK       I    between atoms: C_22  and  N_20 
ROOT
ATOM      1  C   LIG d   1       1.336  87.799 116.628  0.00  0.00     0.161 C 
ATOM      2  C   LIG d   1      -0.034  87.752 116.938  0.00  0.00     0.016 C 
ATOM      3  C   LIG d   1      -0.714  88.790 117.615  0.00  0.00     0.038 C 
ATOM      4  C   LIG d   1      -0.100  90.020 117.896  0.00  0.00     0.028 C 
ATOM      5  C   LIG d   1       1.414  89.918 118.054  0.00  0.00    -0.047 C 
ATOM      6  C   LIG d   1       1.997  89.179 116.828  0.00  0.00     0.091 C 
ENDROOT
BRANCH   1   7
ATOM      7  O   LIG d   1       1.548  87.332 115.281  0.00  0.00    -0.368 OA
BRANCH   7   8
ATOM      8  C   LIG d   1       1.928  85.941 115.141  0.00  0.00     0.119 C 
BRANCH   8   9
ATOM      9  C   LIG d   1       3.460  85.894 114.979  0.00  0.00     0.028 C 
ATOM     10  C   LIG d   1       4.170  85.391 116.247  0.00  0.00     0.006 C 
ENDBRANCH   8   9
BRANCH   8  11
ATOM     11  C   LIG d   1       1.365  85.337 113.852  0.00  0.00     0.028 C 
ATOM     12  C   LIG d   1       1.980  83.969 113.517  0.00  0.00     0.006 C 
ENDBRANCH   8  11
ENDBRANCH   7   8
ENDBRANCH   1   7
BRANCH   6  13
ATOM     13  N   LIG d   1       3.463  88.963 116.942  0.00  0.00    -0.311 N 
ATOM     14  C   LIG d   1       4.320  89.212 115.953  0.00  0.00     0.210 C 
ATOM     15  C   LIG d   1       5.785  88.901 116.273  0.00  0.00     0.109 C 
ATOM     16  O   LIG d   1       4.009  89.693 114.852  0.00  0.00    -0.276 OA
ATOM     17  H   LIG d   1       3.805  88.604 117.812  0.00  0.00     0.149 HD
ENDBRANCH   6  13
BRANCH   5  18
ATOM     18  N   LIG d   1       1.938  91.288 118.206  0.00  0.00     0.381 N 
ATOM     19  H   LIG d   1       1.186  91.946 118.159  0.00  0.00    -0.090 HD
ATOM     20  H   LIG d   1       2.572  91.480 117.450  0.00  0.00    -0.090 HD
ATOM     21  H   LIG d   1       2.413  91.377 119.077  0.00  0.00    -0.090 HD
ENDBRANCH   5  18
BRANCH   3  22
ATOM     22  C   LIG d   1      -2.014  88.588 118.054  0.00  0.00     0.382 C 
ATOM     23  O   LIG d   1      -2.231  87.880 119.067  0.00  0.00    -0.241 OA
ATOM     24  O   LIG d   1      -2.975  89.067 117.423  0.00  0.00    -0.241 OA
ENDBRANCH   3  22
TORSDOF 7
ENDMDL
MODEL 7
REMARK VINA RESULT:      -4.7     12.553     14.785
REMARK  7 active torsions:
REMARK  status: ('A' for Active; 'I' for Inactive)
REMARK    1  A    between atoms: C_2  and  C_3 
REMARK    2  A    between atoms: C_3  and  O_6 
REMARK    3  A    between atoms: C_3  and  C_4 
REMARK    4  A    between atoms: C_7  and  O_6 
REMARK    5  A    between atoms: C_9  and  C_10 
REMARK    6  A    between atoms: N_15  and  C_14 
REMARK    7  A    between atoms: N_20  and  C_19 
REMARK       I    between atoms: C_22  and  N_20 
ROOT
ATOM      1  C   LIG d   1      -7.621  77.439 119.036  0.00  0.00     0.161 C 
ATOM      2  C   LIG d   1      -8.852  76.764 119.094  0.00  0.00     0.016 C 
ATOM      3  C   LIG d   1     -10.101  77.411 118.954  0.00  0.00     0.038 C 
ATOM      4  C   LIG d   1     -10.200  78.763 118.593  0.00  0.00     0.028 C 
ATOM      5  C   LIG d   1      -8.995  79.593 119.021  0.00  0.00    -0.047 C 
ATOM      6  C   LIG d   1      -7.705  78.895 118.533  0.00  0.00     0.091 C 
ENDROOT
BRANCH   1   7
ATOM      7  O   LIG d   1      -6.688  76.685 118.237  0.00  0.00    -0.368 OA
BRANCH   7   8
ATOM      8  C   LIG d   1      -6.678  76.982 116.819  0.00  0.00     0.119 C 
BRANCH   8   9
ATOM      9  C   LIG d   1      -7.123  75.708 116.076  0.00  0.00     0.028 C 
ATOM     10  C   LIG d   1      -6.747  74.424 116.835  0.00  0.00     0.006 C 
ENDBRANCH   8   9
BRANCH   8  11
ATOM     11  C   LIG d   1      -5.259  77.268 116.320  0.00  0.00     0.028 C 
ATOM     12  C   LIG d   1      -4.201  77.145 117.428  0.00  0.00     0.006 C 
ENDBRANCH   8  11
ENDBRANCH   7   8
ENDBRANCH   1   7
BRANCH   6  13
ATOM     13  N   LIG d   1      -6.475  79.598 118.982  0.00  0.00    -0.311 N 
ATOM     14  C   LIG d   1      -5.810  80.468 118.224  0.00  0.00     0.210 C 
ATOM     15  C   LIG d   1      -4.556  81.063 118.872  0.00  0.00     0.109 C 
ATOM     16  O   LIG d   1      -6.157  80.827 117.088  0.00  0.00    -0.276 OA
ATOM     17  H   LIG d   1      -6.141  79.389 119.902  0.00  0.00     0.149 HD
ENDBRANCH   6  13
BRANCH   5  18
ATOM     18  N   LIG d   1      -9.166  80.948 118.462  0.00  0.00     0.381 N 
ATOM     19  H   LIG d   1      -9.185  80.902 117.463  0.00  0.00    -0.090 HD
ATOM     20  H   LIG d   1      -8.383  81.514 118.736  0.00  0.00    -0.090 HD
ATOM     21  H   LIG d   1     -10.012  81.351 118.800  0.00  0.00    -0.090 HD
ENDBRANCH   5  18
BRANCH   3  22
ATOM     22  C   LIG d   1     -11.270  76.712 119.215  0.00  0.00     0.382 C 
ATOM     23  O   LIG d   1     -12.160  76.627 118.335  0.00  0.00    -0.241 OA
ATOM     24  O   LIG d   1     -11.465  76.202 120.335  0.00  0.00    -0.241 OA
ENDBRANCH   3  22
TORSDOF 7
ENDMDL
MODEL 8
REMARK VINA RESULT:      -4.7      2.094      3.735
REMARK  7 active torsions:
REMARK  status: ('A' for Active; 'I' for Inactive)
REMARK    1  A    between atoms: C_2  and  C_3 
REMARK    2  A    between atoms: C_3  and  O_6 
REMARK    3  A    between atoms: C_3  and  C_4 
REMARK    4  A    between atoms: C_7  and  O_6 
REMARK    5  A    between atoms: C_9  and  C_10 
REMARK    6  A    between atoms: N_15  and  C_14 
REMARK    7  A    between atoms: N_20  and  C_19 
REMARK       I    between atoms: C_22  and  N_20 
ROOT
ATOM      1  C   LIG d   1      -5.356  93.220 119.498  0.00  0.00     0.161 C 
ATOM      2  C   LIG d   1      -4.810  92.116 118.823  0.00  0.00     0.016 C 
ATOM      3  C   LIG d   1      -5.117  91.796 117.480  0.00  0.00     0.038 C 
ATOM      4  C   LIG d   1      -5.880  92.650 116.670  0.00  0.00     0.028 C 
ATOM      5  C   LIG d   1      -6.863  93.512 117.455  0.00  0.00    -0.047 C 
ATOM      6  C   LIG d   1      -6.103  94.225 118.597  0.00  0.00     0.091 C 
ENDROOT
BRANCH   1   7
ATOM      7  O   LIG d   1      -4.326  93.891 120.251  0.00  0.00    -0.368 OA
BRANCH   7   8
ATOM      8  C   LIG d   1      -3.307  94.567 119.474  0.00  0.00     0.119 C 
BRANCH   8   9
ATOM      9  C   LIG d   1      -1.937  94.146 120.040  0.00  0.00     0.028 C 
ATOM     10  C   LIG d   1      -1.267  93.048 119.198  0.00  0.00     0.006 C 
ENDBRANCH   8   9
BRANCH   8  11
ATOM     11  C   LIG d   1      -3.376  96.085 119.665  0.00  0.00     0.028 C 
ATOM     12  C   LIG d   1      -2.278  96.618 120.599  0.00  0.00     0.006 C 
ENDBRANCH   8  11
ENDBRANCH   7   8
ENDBRANCH   1   7
BRANCH   6  13
ATOM     13  N   LIG d   1      -7.006  95.024 119.466  0.00  0.00    -0.311 N 
ATOM     14  C   LIG d   1      -7.213  96.330 119.305  0.00  0.00     0.210 C 
ATOM     15  C   LIG d   1      -8.167  96.964 120.322  0.00  0.00     0.109 C 
ATOM     16  O   LIG d   1      -6.723  97.016 118.396  0.00  0.00    -0.276 OA
ATOM     17  H   LIG d   1      -7.469  94.540 120.210  0.00  0.00     0.149 HD
ENDBRANCH   6  13
BRANCH   5  18
ATOM     18  N   LIG d   1      -7.491  94.449 116.505  0.00  0.00     0.381 N 
ATOM     19  H   LIG d   1      -7.410  94.092 115.574  0.00  0.00    -0.090 HD
ATOM     20  H   LIG d   1      -7.008  95.329 116.549  0.00  0.00    -0.090 HD
ATOM     21  H   LIG d   1      -8.452  94.577 116.737  0.00  0.00    -0.090 HD
ENDBRANCH   5  18
BRANCH   3  22
ATOM     22  C   LIG d   1      -4.692  90.588 116.947  0.00  0.00     0.382 C 
ATOM     23  O   LIG d   1      -3.718  89.986 117.460  0.00  0.00    -0.241 OA
ATOM     24  O   LIG d   1      -5.241  90.117 115.934  0.00  0.00    -0.241 OA
ENDBRANCH   3  22
TORSDOF 7
ENDMDL
MODEL 9
REMARK VINA RESULT:      -4.7     19.913     22.454
REMARK  7 active torsions:
REMARK  status: ('A' for Active; 'I' for Inactive)
REMARK    1  A    between atoms: C_2  and  C_3 
REMARK    2  A    between atoms: C_3  and  O_6 
REMARK    3  A    between atoms: C_3  and  C_4 
REMARK    4  A    between atoms: C_7  and  O_6 
REMARK    5  A    between atoms: C_9  and  C_10 
REMARK    6  A    between atoms: N_15  and  C_14 
REMARK    7  A    between atoms: N_20  and  C_19 
REMARK       I    between atoms: C_22  and  N_20 
ROOT
ATOM      1  C   LIG d   1      11.832  78.667 113.786  0.00  0.00     0.161 C 
ATOM      2  C   LIG d   1      10.477  78.910 114.067  0.00  0.00     0.016 C 
ATOM      3  C   LIG d   1       9.603  77.929 114.589  0.00  0.00     0.038 C 
ATOM      4  C   LIG d   1      10.065  76.673 115.010  0.00  0.00     0.028 C 
ATOM      5  C   LIG d   1      11.320  76.213 114.278  0.00  0.00    -0.047 C 
ATOM      6  C   LIG d   1      12.380  77.337 114.343  0.00  0.00     0.091 C 
ENDROOT
BRANCH   1   7
ATOM      7  O   LIG d   1      12.632  79.772 114.251  0.00  0.00    -0.368 OA
BRANCH   7   8
ATOM      8  C   LIG d   1      13.091  79.694 115.622  0.00  0.00     0.119 C 
BRANCH   8   9
ATOM      9  C   LIG d   1      12.441  80.858 116.395  0.00  0.00     0.028 C 
ATOM     10  C   LIG d   1      11.314  80.385 117.329  0.00  0.00     0.006 C 
ENDBRANCH   8   9
BRANCH   8  11
ATOM     11  C   LIG d   1      14.601  79.936 115.720  0.00  0.00     0.028 C 
ATOM     12  C   LIG d   1      15.240  80.266 114.362  0.00  0.00     0.006 C 
ENDBRANCH   8  11
ENDBRANCH   7   8
ENDBRANCH   1   7
BRANCH   6  13
ATOM     13  N   LIG d   1      13.609  77.002 113.578  0.00  0.00    -0.311 N 
ATOM     14  C   LIG d   1      14.707  76.498 114.139  0.00  0.00     0.210 C 
ATOM     15  C   LIG d   1      15.869  76.244 113.174  0.00  0.00     0.109 C 
ATOM     16  O   LIG d   1      14.818  76.207 115.340  0.00  0.00    -0.276 OA
ATOM     17  H   LIG d   1      13.595  77.176 112.592  0.00  0.00     0.149 HD
ENDBRANCH   6  13
BRANCH   5  18
ATOM     18  N   LIG d   1      11.770  74.957 114.909  0.00  0.00     0.381 N 
ATOM     19  H   LIG d   1      11.154  74.211 114.654  0.00  0.00    -0.090 HD
ATOM     20  H   LIG d   1      11.738  75.066 115.907  0.00  0.00    -0.090 HD
ATOM     21  H   LIG d   1      12.699  74.744 114.620  0.00  0.00    -0.090 HD
ENDBRANCH   5  18
BRANCH   3  22
ATOM     22  C   LIG d   1       8.242  78.187 114.657  0.00  0.00     0.382 C 
ATOM     23  O   LIG d   1       7.418  77.300 114.327  0.00  0.00    -0.241 OA
ATOM     24  O   LIG d   1       7.829  79.310 115.002  0.00  0.00    -0.241 OA
ENDBRANCH   3  22
TORSDOF 7
ENDMDL
