MODEL 1
REMARK VINA RESULT:      -5.6      0.000      0.000
REMARK  7 active torsions:
REMARK  status: ('A' for Active; 'I' for Inactive)
REMARK    1  A    between atoms: C_2  and  C_3 
REMARK    2  A    between atoms: C_3  and  O_6 
REMARK    3  A    between atoms: C_3  and  C_4 
REMARK    4  A    between atoms: C_7  and  O_6 
REMARK    5  A    between atoms: C_9  and  C_10 
REMARK    6  A    between atoms: N_15  and  C_14 
REMARK    7  A    between atoms: N_20  and  C_19 
REMARK       I    between atoms: C_22  and  N_20 
ROOT
ATOM      1  C   LIG d   1      -6.639  76.991 117.317  0.00  0.00     0.161 C 
ATOM      2  C   LIG d   1      -7.859  77.465 117.827  0.00  0.00     0.016 C 
ATOM      3  C   LIG d   1      -8.080  78.813 118.191  0.00  0.00     0.038 C 
ATOM      4  C   LIG d   1      -7.136  79.816 117.928  0.00  0.00     0.028 C 
ATOM      5  C   LIG d   1      -5.701  79.301 117.880  0.00  0.00    -0.047 C 
ATOM      6  C   LIG d   1      -5.634  78.093 116.918  0.00  0.00     0.091 C 
ENDROOT
BRANCH   1   7
ATOM      7  O   LIG d   1      -6.884  76.110 116.203  0.00  0.00    -0.368 OA
BRANCH   7   8
ATOM      8  C   LIG d   1      -6.371  74.761 116.334  0.00  0.00     0.119 C 
BRANCH   8   9
ATOM      9  C   LIG d   1      -5.837  74.333 114.953  0.00  0.00     0.028 C 
ATOM     10  C   LIG d   1      -5.660  75.525 113.997  0.00  0.00     0.006 C 
ENDBRANCH   8   9
BRANCH   8  11
ATOM     11  C   LIG d   1      -7.491  73.768 116.660  0.00  0.00     0.028 C 
ATOM     12  C   LIG d   1      -7.185  72.343 116.172  0.00  0.00     0.006 C 
ENDBRANCH   8  11
ENDBRANCH   7   8
ENDBRANCH   1   7
BRANCH   6  13
ATOM     13  N   LIG d   1      -4.283  77.475 116.877  0.00  0.00    -0.311 N 
ATOM     14  C   LIG d   1      -3.371  77.768 115.952  0.00  0.00     0.210 C 
ATOM     15  C   LIG d   1      -2.050  77.003 116.081  0.00  0.00     0.109 C 
ATOM     16  O   LIG d   1      -3.518  78.613 115.056  0.00  0.00    -0.276 OA
ATOM     17  H   LIG d   1      -4.068  76.801 117.586  0.00  0.00     0.149 HD
ENDBRANCH   6  13
BRANCH   5  18
ATOM     18  N   LIG d   1      -4.839  80.422 117.461  0.00  0.00     0.381 N 
ATOM     19  H   LIG d   1      -4.318  80.162 116.647  0.00  0.00    -0.090 HD
ATOM     20  H   LIG d   1      -4.189  80.626 118.200  0.00  0.00    -0.090 HD
ATOM     21  H   LIG d   1      -5.395  81.225 117.266  0.00  0.00    -0.090 HD
ENDBRANCH   5  18
BRANCH   3  22
ATOM     22  C   LIG d   1      -9.241  79.161 118.864  0.00  0.00     0.382 C 
ATOM     23  O   LIG d   1     -10.141  79.802 118.271  0.00  0.00    -0.241 OA
ATOM     24  O   LIG d   1      -9.381  78.882 120.070  0.00  0.00    -0.241 OA
ENDBRANCH   3  22
TORSDOF 7
ENDMDL
MODEL 2
REMARK VINA RESULT:      -5.5      1.990      2.869
REMARK  7 active torsions:
REMARK  status: ('A' for Active; 'I' for Inactive)
REMARK    1  A    between atoms: C_2  and  C_3 
REMARK    2  A    between atoms: C_3  and  O_6 
REMARK    3  A    between atoms: C_3  and  C_4 
REMARK    4  A    between atoms: C_7  and  O_6 
REMARK    5  A    between atoms: C_9  and  C_10 
REMARK    6  A    between atoms: N_15  and  C_14 
REMARK    7  A    between atoms: N_20  and  C_19 
REMARK       I    between atoms: C_22  and  N_20 
ROOT
ATOM      1  C   LIG d   1      -5.159  75.752 117.796  0.00  0.00     0.161 C 
ATOM      2  C   LIG d   1      -6.272  76.606 117.871  0.00  0.00     0.016 C 
ATOM      3  C   LIG d   1      -6.243  77.960 117.464  0.00  0.00     0.038 C 
ATOM      4  C   LIG d   1      -5.134  78.513 116.808  0.00  0.00     0.028 C 
ATOM      5  C   LIG d   1      -3.817  77.834 117.167  0.00  0.00    -0.047 C 
ATOM      6  C   LIG d   1      -3.973  76.307 116.980  0.00  0.00     0.091 C 
ENDROOT
BRANCH   1   7
ATOM      7  O   LIG d   1      -5.563  74.468 117.282  0.00  0.00    -0.368 OA
BRANCH   7   8
ATOM      8  C   LIG d   1      -6.610  74.482 116.281  0.00  0.00     0.119 C 
BRANCH   8   9
ATOM      9  C   LIG d   1      -7.607  73.363 116.637  0.00  0.00     0.028 C 
ATOM     10  C   LIG d   1      -7.243  72.021 115.980  0.00  0.00     0.006 C 
ENDBRANCH   8   9
BRANCH   8  11
ATOM     11  C   LIG d   1      -6.063  74.113 114.898  0.00  0.00     0.028 C 
ATOM     12  C   LIG d   1      -5.745  75.344 114.035  0.00  0.00     0.006 C 
ENDBRANCH   8  11
ENDBRANCH   7   8
ENDBRANCH   1   7
BRANCH   6  13
ATOM     13  N   LIG d   1      -2.756  75.559 117.391  0.00  0.00    -0.311 N 
ATOM     14  C   LIG d   1      -2.176  74.630 116.632  0.00  0.00     0.210 C 
ATOM     15  C   LIG d   1      -0.943  73.966 117.253  0.00  0.00     0.109 C 
ATOM     16  O   LIG d   1      -2.546  74.316 115.491  0.00  0.00    -0.276 OA
ATOM     17  H   LIG d   1      -2.370  75.773 118.290  0.00  0.00     0.149 HD
ENDBRANCH   6  13
BRANCH   5  18
ATOM     18  N   LIG d   1      -2.766  78.417 116.311  0.00  0.00     0.381 N 
ATOM     19  H   LIG d   1      -1.908  77.919 116.441  0.00  0.00    -0.090 HD
ATOM     20  H   LIG d   1      -2.620  79.373 116.582  0.00  0.00    -0.090 HD
ATOM     21  H   LIG d   1      -3.042  78.373 115.355  0.00  0.00    -0.090 HD
ENDBRANCH   5  18
BRANCH   3  22
ATOM     22  C   LIG d   1      -7.320  78.786 117.748  0.00  0.00     0.382 C 
ATOM     23  O   LIG d   1      -8.419  78.288 118.091  0.00  0.00    -0.241 OA
ATOM     24  O   LIG d   1      -7.219  80.021 117.623  0.00  0.00    -0.241 OA
ENDBRANCH   3  22
TORSDOF 7
ENDMDL
MODEL 3
REMARK VINA RESULT:      -5.4      3.851      5.443
REMARK  7 active torsions:
REMARK  status: ('A' for Active; 'I' for Inactive)
REMARK    1  A    between atoms: C_2  and  C_3 
REMARK    2  A    between atoms: C_3  and  O_6 
REMARK    3  A    between atoms: C_3  and  C_4 
REMARK    4  A    between atoms: C_7  and  O_6 
REMARK    5  A    between atoms: C_9  and  C_10 
REMARK    6  A    between atoms: N_15  and  C_14 
REMARK    7  A    between atoms: N_20  and  C_19 
REMARK       I    between atoms: C_22  and  N_20 
ROOT
ATOM      1  C   LIG d   1      -2.972  76.062 116.908  0.00  0.00     0.161 C 
ATOM      2  C   LIG d   1      -3.380  77.222 116.229  0.00  0.00     0.016 C 
ATOM      3  C   LIG d   1      -2.486  78.078 115.545  0.00  0.00     0.038 C 
ATOM      4  C   LIG d   1      -1.135  77.747 115.364  0.00  0.00     0.028 C 
ATOM      5  C   LIG d   1      -0.581  76.843 116.460  0.00  0.00    -0.047 C 
ATOM      6  C   LIG d   1      -1.519  75.626 116.628  0.00  0.00     0.091 C 
ENDROOT
BRANCH   1   7
ATOM      7  O   LIG d   1      -3.883  74.983 116.621  0.00  0.00    -0.368 OA
BRANCH   7   8
ATOM      8  C   LIG d   1      -5.251  75.363 116.330  0.00  0.00     0.119 C 
BRANCH   8   9
ATOM      9  C   LIG d   1      -6.147  74.731 117.413  0.00  0.00     0.028 C 
ATOM     10  C   LIG d   1      -6.991  73.566 116.870  0.00  0.00     0.006 C 
ENDBRANCH   8   9
BRANCH   8  11
ATOM     11  C   LIG d   1      -5.728  74.760 115.006  0.00  0.00     0.028 C 
ATOM     12  C   LIG d   1      -5.819  75.798 113.876  0.00  0.00     0.006 C 
ENDBRANCH   8  11
ENDBRANCH   7   8
ENDBRANCH   1   7
BRANCH   6  13
ATOM     13  N   LIG d   1      -1.095  74.733 117.738  0.00  0.00    -0.311 N 
ATOM     14  C   LIG d   1      -0.687  73.479 117.555  0.00  0.00     0.210 C 
ATOM     15  C   LIG d   1      -0.315  72.726 118.836  0.00  0.00     0.109 C 
ATOM     16  O   LIG d   1      -0.566  72.928 116.450  0.00  0.00    -0.276 OA
ATOM     17  H   LIG d   1      -1.132  75.109 118.665  0.00  0.00     0.149 HD
ENDBRANCH   6  13
BRANCH   5  18
ATOM     18  N   LIG d   1       0.792  76.466 116.075  0.00  0.00     0.381 N 
ATOM     19  H   LIG d   1       1.391  77.265 116.130  0.00  0.00    -0.090 HD
ATOM     20  H   LIG d   1       0.786  76.142 115.123  0.00  0.00    -0.090 HD
ATOM     21  H   LIG d   1       1.130  75.747 116.676  0.00  0.00    -0.090 HD
ENDBRANCH   5  18
BRANCH   3  22
ATOM     22  C   LIG d   1      -2.935  79.300 115.066  0.00  0.00     0.382 C 
ATOM     23  O   LIG d   1      -3.594  80.062 115.814  0.00  0.00    -0.241 OA
ATOM     24  O   LIG d   1      -2.726  79.630 113.884  0.00  0.00    -0.241 OA
ENDBRANCH   3  22
TORSDOF 7
ENDMDL
MODEL 4
REMARK VINA RESULT:      -5.3     12.649     14.979
REMARK  7 active torsions:
REMARK  status: ('A' for Active; 'I' for Inactive)
REMARK    1  A    between atoms: C_2  and  C_3 
REMARK    2  A    between atoms: C_3  and  O_6 
REMARK    3  A    between atoms: C_3  and  C_4 
REMARK    4  A    between atoms: C_7  and  O_6 
REMARK    5  A    between atoms: C_9  and  C_10 
REMARK    6  A    between atoms: N_15  and  C_14 
REMARK    7  A    between atoms: N_20  and  C_19 
REMARK       I    between atoms: C_22  and  N_20 
ROOT
ATOM      1  C   LIG d   1      -2.944  92.093 117.649  0.00  0.00     0.161 C 
ATOM      2  C   LIG d   1      -3.011  93.120 118.606  0.00  0.00     0.016 C 
ATOM      3  C   LIG d   1      -4.221  93.738 119.000  0.00  0.00     0.038 C 
ATOM      4  C   LIG d   1      -5.469  93.263 118.572  0.00  0.00     0.028 C 
ATOM      5  C   LIG d   1      -5.419  92.560 117.220  0.00  0.00    -0.047 C 
ATOM      6  C   LIG d   1      -4.307  91.487 117.253  0.00  0.00     0.091 C 
ENDROOT
BRANCH   1   7
ATOM      7  O   LIG d   1      -2.049  91.059 118.105  0.00  0.00    -0.368 OA
BRANCH   7   8
ATOM      8  C   LIG d   1      -2.646  90.003 118.897  0.00  0.00     0.119 C 
BRANCH   8   9
ATOM      9  C   LIG d   1      -2.278  90.265 120.370  0.00  0.00     0.028 C 
ATOM     10  C   LIG d   1      -1.465  89.114 120.986  0.00  0.00     0.006 C 
ENDBRANCH   8   9
BRANCH   8  11
ATOM     11  C   LIG d   1      -2.032  88.640 118.562  0.00  0.00     0.028 C 
ATOM     12  C   LIG d   1      -1.606  88.524 117.090  0.00  0.00     0.006 C 
ENDBRANCH   8  11
ENDBRANCH   7   8
ENDBRANCH   1   7
BRANCH   6  13
ATOM     13  N   LIG d   1      -4.133  90.809 115.942  0.00  0.00    -0.311 N 
ATOM     14  C   LIG d   1      -4.823  89.729 115.579  0.00  0.00     0.210 C 
ATOM     15  C   LIG d   1      -4.476  89.175 114.193  0.00  0.00     0.109 C 
ATOM     16  O   LIG d   1      -5.712  89.195 116.259  0.00  0.00    -0.276 OA
ATOM     17  H   LIG d   1      -3.454  91.194 115.316  0.00  0.00     0.149 HD
ENDBRANCH   6  13
BRANCH   5  18
ATOM     18  N   LIG d   1      -6.758  91.997 116.960  0.00  0.00     0.381 N 
ATOM     19  H   LIG d   1      -7.456  92.574 117.384  0.00  0.00    -0.090 HD
ATOM     20  H   LIG d   1      -6.811  91.082 117.373  0.00  0.00    -0.090 HD
ATOM     21  H   LIG d   1      -6.917  91.936 115.979  0.00  0.00    -0.090 HD
ENDBRANCH   5  18
BRANCH   3  22
ATOM     22  C   LIG d   1      -4.185  94.868 119.801  0.00  0.00     0.382 C 
ATOM     23  O   LIG d   1      -3.431  94.903 120.803  0.00  0.00    -0.241 OA
ATOM     24  O   LIG d   1      -4.930  95.837 119.560  0.00  0.00    -0.241 OA
ENDBRANCH   3  22
TORSDOF 7
ENDMDL
MODEL 5
REMARK VINA RESULT:      -5.3     12.911     14.878
REMARK  7 active torsions:
REMARK  status: ('A' for Active; 'I' for Inactive)
REMARK    1  A    between atoms: C_2  and  C_3 
REMARK    2  A    between atoms: C_3  and  O_6 
REMARK    3  A    between atoms: C_3  and  C_4 
REMARK    4  A    between atoms: C_7  and  O_6 
REMARK    5  A    between atoms: C_9  and  C_10 
REMARK    6  A    between atoms: N_15  and  C_14 
REMARK    7  A    between atoms: N_20  and  C_19 
REMARK       I    between atoms: C_22  and  N_20 
ROOT
ATOM      1  C   LIG d   1      -4.328  91.796 117.324  0.00  0.00     0.161 C 
ATOM      2  C   LIG d   1      -5.391  92.098 116.457  0.00  0.00     0.016 C 
ATOM      3  C   LIG d   1      -5.767  91.274 115.371  0.00  0.00     0.038 C 
ATOM      4  C   LIG d   1      -5.196  90.009 115.168  0.00  0.00     0.028 C 
ATOM      5  C   LIG d   1      -3.778  89.889 115.715  0.00  0.00    -0.047 C 
ATOM      6  C   LIG d   1      -3.766  90.366 117.185  0.00  0.00     0.091 C 
ENDROOT
BRANCH   1   7
ATOM      7  O   LIG d   1      -4.722  92.050 118.687  0.00  0.00    -0.368 OA
BRANCH   7   8
ATOM      8  C   LIG d   1      -4.105  93.194 119.327  0.00  0.00     0.119 C 
BRANCH   8   9
ATOM      9  C   LIG d   1      -3.250  92.665 120.495  0.00  0.00     0.028 C 
ATOM     10  C   LIG d   1      -3.774  91.329 121.048  0.00  0.00     0.006 C 
ENDBRANCH   8   9
BRANCH   8  11
ATOM     11  C   LIG d   1      -5.153  94.105 119.972  0.00  0.00     0.028 C 
ATOM     12  C   LIG d   1      -6.593  93.635 119.709  0.00  0.00     0.006 C 
ENDBRANCH   8  11
ENDBRANCH   7   8
ENDBRANCH   1   7
BRANCH   6  13
ATOM     13  N   LIG d   1      -2.400  90.361 117.771  0.00  0.00    -0.311 N 
ATOM     14  C   LIG d   1      -1.897  89.330 118.448  0.00  0.00     0.210 C 
ATOM     15  C   LIG d   1      -0.477  89.540 118.985  0.00  0.00     0.109 C 
ATOM     16  O   LIG d   1      -2.479  88.250 118.628  0.00  0.00    -0.276 OA
ATOM     17  H   LIG d   1      -1.847  91.186 117.646  0.00  0.00     0.149 HD
ENDBRANCH   6  13
BRANCH   5  18
ATOM     18  N   LIG d   1      -3.358  88.484 115.560  0.00  0.00     0.381 N 
ATOM     19  H   LIG d   1      -3.829  87.913 116.233  0.00  0.00    -0.090 HD
ATOM     20  H   LIG d   1      -2.369  88.420 115.728  0.00  0.00    -0.090 HD
ATOM     21  H   LIG d   1      -3.566  88.165 114.639  0.00  0.00    -0.090 HD
ENDBRANCH   5  18
BRANCH   3  22
ATOM     22  C   LIG d   1      -6.697  91.733 114.450  0.00  0.00     0.382 C 
ATOM     23  O   LIG d   1      -6.329  92.468 113.501  0.00  0.00    -0.241 OA
ATOM     24  O   LIG d   1      -7.904  91.458 114.581  0.00  0.00    -0.241 OA
ENDBRANCH   3  22
TORSDOF 7
ENDMDL
MODEL 6
REMARK VINA RESULT:      -5.3     12.831     14.280
REMARK  7 active torsions:
REMARK  status: ('A' for Active; 'I' for Inactive)
REMARK    1  A    between atoms: C_2  and  C_3 
REMARK    2  A    between atoms: C_3  and  O_6 
REMARK    3  A    between atoms: C_3  and  C_4 
REMARK    4  A    between atoms: C_7  and  O_6 
REMARK    5  A    between atoms: C_9  and  C_10 
REMARK    6  A    between atoms: N_15  and  C_14 
REMARK    7  A    between atoms: N_20  and  C_19 
REMARK       I    between atoms: C_22  and  N_20 
ROOT
ATOM      1  C   LIG d   1      -3.503  90.416 117.538  0.00  0.00     0.161 C 
ATOM      2  C   LIG d   1      -4.343  90.063 116.469  0.00  0.00     0.016 C 
ATOM      3  C   LIG d   1      -5.400  90.880 116.007  0.00  0.00     0.038 C 
ATOM      4  C   LIG d   1      -5.595  92.183 116.490  0.00  0.00     0.028 C 
ATOM      5  C   LIG d   1      -5.089  92.384 117.914  0.00  0.00    -0.047 C 
ATOM      6  C   LIG d   1      -3.630  91.882 118.003  0.00  0.00     0.091 C 
ENDROOT
BRANCH   1   7
ATOM      7  O   LIG d   1      -2.134  90.114 117.204  0.00  0.00    -0.368 OA
BRANCH   7   8
ATOM      8  C   LIG d   1      -1.695  88.760 117.477  0.00  0.00     0.119 C 
BRANCH   8   9
ATOM      9  C   LIG d   1      -1.963  88.479 118.969  0.00  0.00     0.028 C 
ATOM     10  C   LIG d   1      -0.684  88.560 119.820  0.00  0.00     0.006 C 
ENDBRANCH   8   9
BRANCH   8  11
ATOM     11  C   LIG d   1      -0.180  88.620 117.304  0.00  0.00     0.028 C 
ATOM     12  C   LIG d   1       0.209  87.958 115.973  0.00  0.00     0.006 C 
ENDBRANCH   8  11
ENDBRANCH   7   8
ENDBRANCH   1   7
BRANCH   6  13
ATOM     13  N   LIG d   1      -3.085  91.964 119.384  0.00  0.00    -0.311 N 
ATOM     14  C   LIG d   1      -1.874  92.439 119.667  0.00  0.00     0.210 C 
ATOM     15  C   LIG d   1      -1.501  92.416 121.153  0.00  0.00     0.109 C 
ATOM     16  O   LIG d   1      -1.085  92.907 118.833  0.00  0.00    -0.276 OA
ATOM     17  H   LIG d   1      -3.672  91.635 120.126  0.00  0.00     0.149 HD
ENDBRANCH   6  13
BRANCH   5  18
ATOM     18  N   LIG d   1      -5.229  93.815 118.240  0.00  0.00     0.381 N 
ATOM     19  H   LIG d   1      -5.524  94.320 117.428  0.00  0.00    -0.090 HD
ATOM     20  H   LIG d   1      -4.335  94.173 118.525  0.00  0.00    -0.090 HD
ATOM     21  H   LIG d   1      -5.892  93.935 118.973  0.00  0.00    -0.090 HD
ENDBRANCH   5  18
BRANCH   3  22
ATOM     22  C   LIG d   1      -6.302  90.379 115.080  0.00  0.00     0.382 C 
ATOM     23  O   LIG d   1      -7.509  90.717 115.134  0.00  0.00    -0.241 OA
ATOM     24  O   LIG d   1      -5.931  89.560 114.218  0.00  0.00    -0.241 OA
ENDBRANCH   3  22
TORSDOF 7
ENDMDL
MODEL 7
REMARK VINA RESULT:      -5.2      2.391      5.721
REMARK  7 active torsions:
REMARK  status: ('A' for Active; 'I' for Inactive)
REMARK    1  A    between atoms: C_2  and  C_3 
REMARK    2  A    between atoms: C_3  and  O_6 
REMARK    3  A    between atoms: C_3  and  C_4 
REMARK    4  A    between atoms: C_7  and  O_6 
REMARK    5  A    between atoms: C_9  and  C_10 
REMARK    6  A    between atoms: N_15  and  C_14 
REMARK    7  A    between atoms: N_20  and  C_19 
REMARK       I    between atoms: C_22  and  N_20 
ROOT
ATOM      1  C   LIG d   1      -4.530  77.935 116.493  0.00  0.00     0.161 C 
ATOM      2  C   LIG d   1      -4.683  76.778 115.711  0.00  0.00     0.016 C 
ATOM      3  C   LIG d   1      -5.895  76.055 115.620  0.00  0.00     0.038 C 
ATOM      4  C   LIG d   1      -7.086  76.528 116.190  0.00  0.00     0.028 C 
ATOM      5  C   LIG d   1      -6.862  77.423 117.405  0.00  0.00    -0.047 C 
ATOM      6  C   LIG d   1      -5.848  78.529 117.033  0.00  0.00     0.091 C 
ENDROOT
BRANCH   1   7
ATOM      7  O   LIG d   1      -3.797  78.931 115.753  0.00  0.00    -0.368 OA
BRANCH   7   8
ATOM      8  C   LIG d   1      -2.496  79.288 116.281  0.00  0.00     0.119 C 
BRANCH   8   9
ATOM      9  C   LIG d   1      -2.523  80.796 116.598  0.00  0.00     0.028 C 
ATOM     10  C   LIG d   1      -1.877  81.122 117.955  0.00  0.00     0.006 C 
ENDBRANCH   8   9
BRANCH   8  11
ATOM     11  C   LIG d   1      -1.400  79.115 115.226  0.00  0.00     0.028 C 
ATOM     12  C   LIG d   1      -1.921  79.291 113.791  0.00  0.00     0.006 C 
ENDBRANCH   8  11
ENDBRANCH   7   8
ENDBRANCH   1   7
BRANCH   6  13
ATOM     13  N   LIG d   1      -5.508  79.398 118.190  0.00  0.00    -0.311 N 
ATOM     14  C   LIG d   1      -5.862  80.680 118.273  0.00  0.00     0.210 C 
ATOM     15  C   LIG d   1      -5.393  81.399 119.541  0.00  0.00     0.109 C 
ATOM     16  O   LIG d   1      -6.546  81.280 117.431  0.00  0.00    -0.276 OA
ATOM     17  H   LIG d   1      -4.981  78.983 118.933  0.00  0.00     0.149 HD
ENDBRANCH   6  13
BRANCH   5  18
ATOM     18  N   LIG d   1      -8.175  77.956 117.814  0.00  0.00     0.381 N 
ATOM     19  H   LIG d   1      -8.083  78.459 118.674  0.00  0.00    -0.090 HD
ATOM     20  H   LIG d   1      -8.805  77.188 117.963  0.00  0.00    -0.090 HD
ATOM     21  H   LIG d   1      -8.535  78.557 117.105  0.00  0.00    -0.090 HD
ENDBRANCH   5  18
BRANCH   3  22
ATOM     22  C   LIG d   1      -5.913  74.822 114.986  0.00  0.00     0.382 C 
ATOM     23  O   LIG d   1      -5.490  74.716 113.809  0.00  0.00    -0.241 OA
ATOM     24  O   LIG d   1      -6.388  73.823 115.559  0.00  0.00    -0.241 OA
ENDBRANCH   3  22
TORSDOF 7
ENDMDL
MODEL 8
REMARK VINA RESULT:      -5.1     13.573     15.930
REMARK  7 active torsions:
REMARK  status: ('A' for Active; 'I' for Inactive)
REMARK    1  A    between atoms: C_2  and  C_3 
REMARK    2  A    between atoms: C_3  and  O_6 
REMARK    3  A    between atoms: C_3  and  C_4 
REMARK    4  A    between atoms: C_7  and  O_6 
REMARK    5  A    between atoms: C_9  and  C_10 
REMARK    6  A    between atoms: N_15  and  C_14 
REMARK    7  A    between atoms: N_20  and  C_19 
REMARK       I    between atoms: C_22  and  N_20 
ROOT
ATOM      1  C   LIG d   1      -4.886  92.504 117.629  0.00  0.00     0.161 C 
ATOM      2  C   LIG d   1      -5.869  92.458 116.626  0.00  0.00     0.016 C 
ATOM      3  C   LIG d   1      -5.931  91.444 115.643  0.00  0.00     0.038 C 
ATOM      4  C   LIG d   1      -5.098  90.316 115.688  0.00  0.00     0.028 C 
ATOM      5  C   LIG d   1      -3.765  90.575 116.384  0.00  0.00    -0.047 C 
ATOM      6  C   LIG d   1      -4.036  91.223 117.760  0.00  0.00     0.091 C 
ENDROOT
BRANCH   1   7
ATOM      7  O   LIG d   1      -5.493  92.835 118.894  0.00  0.00    -0.368 OA
BRANCH   7   8
ATOM      8  C   LIG d   1      -5.524  94.242 119.237  0.00  0.00     0.119 C 
BRANCH   8   9
ATOM      9  C   LIG d   1      -4.418  94.487 120.283  0.00  0.00     0.028 C 
ATOM     10  C   LIG d   1      -3.153  95.106 119.665  0.00  0.00     0.006 C 
ENDBRANCH   8   9
BRANCH   8  11
ATOM     11  C   LIG d   1      -6.834  94.616 119.937  0.00  0.00     0.028 C 
ATOM     12  C   LIG d   1      -7.259  96.069 119.668  0.00  0.00     0.006 C 
ENDBRANCH   8  11
ENDBRANCH   7   8
ENDBRANCH   1   7
BRANCH   6  13
ATOM     13  N   LIG d   1      -2.783  91.586 118.472  0.00  0.00    -0.311 N 
ATOM     14  C   LIG d   1      -2.560  91.304 119.754  0.00  0.00     0.210 C 
ATOM     15  C   LIG d   1      -1.210  91.785 120.297  0.00  0.00     0.109 C 
ATOM     16  O   LIG d   1      -3.338  90.672 120.485  0.00  0.00    -0.276 OA
ATOM     17  H   LIG d   1      -2.084  92.073 117.946  0.00  0.00     0.149 HD
ENDBRANCH   6  13
BRANCH   5  18
ATOM     18  N   LIG d   1      -3.056  89.285 116.481  0.00  0.00     0.381 N 
ATOM     19  H   LIG d   1      -2.500  89.141 115.662  0.00  0.00    -0.090 HD
ATOM     20  H   LIG d   1      -3.733  88.545 116.537  0.00  0.00    -0.090 HD
ATOM     21  H   LIG d   1      -2.476  89.275 117.291  0.00  0.00    -0.090 HD
ENDBRANCH   5  18
BRANCH   3  22
ATOM     22  C   LIG d   1      -6.809  91.572 114.577  0.00  0.00     0.382 C 
ATOM     23  O   LIG d   1      -6.443  92.162 113.532  0.00  0.00    -0.241 OA
ATOM     24  O   LIG d   1      -7.975  91.145 114.665  0.00  0.00    -0.241 OA
ENDBRANCH   3  22
TORSDOF 7
ENDMDL
MODEL 9
REMARK VINA RESULT:      -5.0      2.789      5.633
REMARK  7 active torsions:
REMARK  status: ('A' for Active; 'I' for Inactive)
REMARK    1  A    between atoms: C_2  and  C_3 
REMARK    2  A    between atoms: C_3  and  O_6 
REMARK    3  A    between atoms: C_3  and  C_4 
REMARK    4  A    between atoms: C_7  and  O_6 
REMARK    5  A    between atoms: C_9  and  C_10 
REMARK    6  A    between atoms: N_15  and  C_14 
REMARK    7  A    between atoms: N_20  and  C_19 
REMARK       I    between atoms: C_22  and  N_20 
ROOT
ATOM      1  C   LIG d   1      -4.279  75.565 116.645  0.00  0.00     0.161 C 
ATOM      2  C   LIG d   1      -3.335  74.556 116.393  0.00  0.00     0.016 C 
ATOM      3  C   LIG d   1      -1.964  74.673 116.722  0.00  0.00     0.038 C 
ATOM      4  C   LIG d   1      -1.471  75.755 117.467  0.00  0.00     0.028 C 
ATOM      5  C   LIG d   1      -2.291  77.030 117.301  0.00  0.00    -0.047 C 
ATOM      6  C   LIG d   1      -3.780  76.705 117.557  0.00  0.00     0.091 C 
ENDROOT
BRANCH   1   7
ATOM      7  O   LIG d   1      -5.483  74.984 117.183  0.00  0.00    -0.368 OA
BRANCH   7   8
ATOM      8  C   LIG d   1      -6.515  74.650 116.222  0.00  0.00     0.119 C 
BRANCH   8   9
ATOM      9  C   LIG d   1      -7.861  75.120 116.805  0.00  0.00     0.028 C 
ATOM     10  C   LIG d   1      -8.049  76.643 116.693  0.00  0.00     0.006 C 
ENDBRANCH   8   9
BRANCH   8  11
ATOM     11  C   LIG d   1      -6.652  73.133 116.056  0.00  0.00     0.028 C 
ATOM     12  C   LIG d   1      -7.990  72.595 116.587  0.00  0.00     0.006 C 
ENDBRANCH   8  11
ENDBRANCH   7   8
ENDBRANCH   1   7
BRANCH   6  13
ATOM     13  N   LIG d   1      -4.663  77.880 117.332  0.00  0.00    -0.311 N 
ATOM     14  C   LIG d   1      -5.327  78.495 118.309  0.00  0.00     0.210 C 
ATOM     15  C   LIG d   1      -6.196  79.673 117.857  0.00  0.00     0.109 C 
ATOM     16  O   LIG d   1      -5.253  78.198 119.511  0.00  0.00    -0.276 OA
ATOM     17  H   LIG d   1      -4.755  78.207 116.391  0.00  0.00     0.149 HD
ENDBRANCH   6  13
BRANCH   5  18
ATOM     18  N   LIG d   1      -1.748  78.034 118.236  0.00  0.00     0.381 N 
ATOM     19  H   LIG d   1      -1.553  77.604 119.118  0.00  0.00    -0.090 HD
ATOM     20  H   LIG d   1      -2.438  78.750 118.379  0.00  0.00    -0.090 HD
ATOM     21  H   LIG d   1      -0.916  78.434 117.861  0.00  0.00    -0.090 HD
ENDBRANCH   5  18
BRANCH   3  22
ATOM     22  C   LIG d   1      -1.065  73.720 116.270  0.00  0.00     0.382 C 
ATOM     23  O   LIG d   1      -0.983  73.468 115.043  0.00  0.00    -0.241 OA
ATOM     24  O   LIG d   1      -0.367  73.077 117.076  0.00  0.00    -0.241 OA
ENDBRANCH   3  22
TORSDOF 7
ENDMDL
