MODEL 1
REMARK VINA RESULT:      -5.6      0.000      0.000
REMARK  7 active torsions:
REMARK  status: ('A' for Active; 'I' for Inactive)
REMARK    1  A    between atoms: C_2  and  C_3 
REMARK    2  A    between atoms: C_3  and  O_6 
REMARK    3  A    between atoms: C_3  and  C_4 
REMARK    4  A    between atoms: C_7  and  O_6 
REMARK    5  A    between atoms: C_9  and  C_10 
REMARK    6  A    between atoms: N_15  and  C_14 
REMARK    7  A    between atoms: N_20  and  C_19 
REMARK       I    between atoms: C_22  and  N_20 
ROOT
ATOM      1  C   LIG d   1      -8.232  75.209 116.969  0.00  0.00     0.161 C 
ATOM      2  C   LIG d   1      -7.177  74.910 116.091  0.00  0.00     0.016 C 
ATOM      3  C   LIG d   1      -6.065  75.761 115.893  0.00  0.00     0.038 C 
ATOM      4  C   LIG d   1      -5.858  76.905 116.677  0.00  0.00     0.028 C 
ATOM      5  C   LIG d   1      -7.149  77.509 117.220  0.00  0.00    -0.047 C 
ATOM      6  C   LIG d   1      -7.969  76.399 117.915  0.00  0.00     0.091 C 
ENDROOT
BRANCH   1   7
ATOM      7  O   LIG d   1      -8.584  74.034 117.727  0.00  0.00    -0.368 OA
BRANCH   7   8
ATOM      8  C   LIG d   1      -9.588  73.172 117.137  0.00  0.00     0.119 C 
BRANCH   8   9
ATOM      9  C   LIG d   1     -10.907  73.410 117.897  0.00  0.00     0.028 C 
ATOM     10  C   LIG d   1     -11.782  74.485 117.232  0.00  0.00     0.006 C 
ENDBRANCH   8   9
BRANCH   8  11
ATOM     11  C   LIG d   1      -9.253  71.694 117.359  0.00  0.00     0.028 C 
ATOM     12  C   LIG d   1      -8.349  71.117 116.258  0.00  0.00     0.006 C 
ENDBRANCH   8  11
ENDBRANCH   7   8
ENDBRANCH   1   7
BRANCH   6  13
ATOM     13  N   LIG d   1      -9.286  76.887 118.401  0.00  0.00    -0.311 N 
ATOM     14  C   LIG d   1      -9.776  76.598 119.606  0.00  0.00     0.210 C 
ATOM     15  C   LIG d   1     -11.160  77.186 119.899  0.00  0.00     0.109 C 
ATOM     16  O   LIG d   1      -9.181  75.938 120.471  0.00  0.00    -0.276 OA
ATOM     17  H   LIG d   1      -9.821  77.455 117.775  0.00  0.00     0.149 HD
ENDBRANCH   6  13
BRANCH   5  18
ATOM     18  N   LIG d   1      -6.778  78.610 118.129  0.00  0.00     0.381 N 
ATOM     19  H   LIG d   1      -7.552  78.835 118.722  0.00  0.00    -0.090 HD
ATOM     20  H   LIG d   1      -6.554  79.422 117.582  0.00  0.00    -0.090 HD
ATOM     21  H   LIG d   1      -5.992  78.346 118.682  0.00  0.00    -0.090 HD
ENDBRANCH   5  18
BRANCH   3  22
ATOM     22  C   LIG d   1      -5.166  75.490 114.872  0.00  0.00     0.382 C 
ATOM     23  O   LIG d   1      -5.240  76.119 113.789  0.00  0.00    -0.241 OA
ATOM     24  O   LIG d   1      -4.311  74.595 115.005  0.00  0.00    -0.241 OA
ENDBRANCH   3  22
TORSDOF 7
ENDMDL
MODEL 2
REMARK VINA RESULT:      -5.5     16.212     18.550
REMARK  7 active torsions:
REMARK  status: ('A' for Active; 'I' for Inactive)
REMARK    1  A    between atoms: C_2  and  C_3 
REMARK    2  A    between atoms: C_3  and  O_6 
REMARK    3  A    between atoms: C_3  and  C_4 
REMARK    4  A    between atoms: C_7  and  O_6 
REMARK    5  A    between atoms: C_9  and  C_10 
REMARK    6  A    between atoms: N_15  and  C_14 
REMARK    7  A    between atoms: N_20  and  C_19 
REMARK       I    between atoms: C_22  and  N_20 
ROOT
ATOM      1  C   LIG d   1      -6.197  93.295 117.977  0.00  0.00     0.161 C 
ATOM      2  C   LIG d   1      -6.945  92.431 117.160  0.00  0.00     0.016 C 
ATOM      3  C   LIG d   1      -6.383  91.335 116.467  0.00  0.00     0.038 C 
ATOM      4  C   LIG d   1      -5.053  90.935 116.666  0.00  0.00     0.028 C 
ATOM      5  C   LIG d   1      -4.134  92.076 117.090  0.00  0.00    -0.047 C 
ATOM      6  C   LIG d   1      -4.767  92.809 118.294  0.00  0.00     0.091 C 
ENDROOT
BRANCH   1   7
ATOM      7  O   LIG d   1      -6.918  93.561 119.197  0.00  0.00    -0.368 OA
BRANCH   7   8
ATOM      8  C   LIG d   1      -7.465  94.895 119.336  0.00  0.00     0.119 C 
BRANCH   8   9
ATOM      9  C   LIG d   1      -8.977  94.808 119.052  0.00  0.00     0.028 C 
ATOM     10  C   LIG d   1      -9.810  94.692 120.339  0.00  0.00     0.006 C 
ENDBRANCH   8   9
BRANCH   8  11
ATOM     11  C   LIG d   1      -6.905  95.841 118.270  0.00  0.00     0.028 C 
ATOM     12  C   LIG d   1      -7.937  96.874 117.789  0.00  0.00     0.006 C 
ENDBRANCH   8  11
ENDBRANCH   7   8
ENDBRANCH   1   7
BRANCH   6  13
ATOM     13  N   LIG d   1      -3.974  93.992 118.719  0.00  0.00    -0.311 N 
ATOM     14  C   LIG d   1      -3.038  93.945 119.665  0.00  0.00     0.210 C 
ATOM     15  C   LIG d   1      -2.353  95.283 119.963  0.00  0.00     0.109 C 
ATOM     16  O   LIG d   1      -2.687  92.917 120.263  0.00  0.00    -0.276 OA
ATOM     17  H   LIG d   1      -4.172  94.861 118.263  0.00  0.00     0.149 HD
ENDBRANCH   6  13
BRANCH   5  18
ATOM     18  N   LIG d   1      -2.813  91.495 117.396  0.00  0.00     0.381 N 
ATOM     19  H   LIG d   1      -2.910  90.783 118.092  0.00  0.00    -0.090 HD
ATOM     20  H   LIG d   1      -2.218  92.216 117.762  0.00  0.00    -0.090 HD
ATOM     21  H   LIG d   1      -2.411  91.109 116.570  0.00  0.00    -0.090 HD
ENDBRANCH   5  18
BRANCH   3  22
ATOM     22  C   LIG d   1      -7.144  90.649 115.533  0.00  0.00     0.382 C 
ATOM     23  O   LIG d   1      -7.184  89.395 115.556  0.00  0.00    -0.241 OA
ATOM     24  O   LIG d   1      -7.755  91.266 114.640  0.00  0.00    -0.241 OA
ENDBRANCH   3  22
TORSDOF 7
ENDMDL
MODEL 3
REMARK VINA RESULT:      -5.5     15.411     17.581
REMARK  7 active torsions:
REMARK  status: ('A' for Active; 'I' for Inactive)
REMARK    1  A    between atoms: C_2  and  C_3 
REMARK    2  A    between atoms: C_3  and  O_6 
REMARK    3  A    between atoms: C_3  and  C_4 
REMARK    4  A    between atoms: C_7  and  O_6 
REMARK    5  A    between atoms: C_9  and  C_10 
REMARK    6  A    between atoms: N_15  and  C_14 
REMARK    7  A    between atoms: N_20  and  C_19 
REMARK       I    between atoms: C_22  and  N_20 
ROOT
ATOM      1  C   LIG d   1      -4.571  91.866 117.877  0.00  0.00     0.161 C 
ATOM      2  C   LIG d   1      -4.651  90.983 116.787  0.00  0.00     0.016 C 
ATOM      3  C   LIG d   1      -5.773  90.903 115.931  0.00  0.00     0.038 C 
ATOM      4  C   LIG d   1      -6.837  91.813 116.016  0.00  0.00     0.028 C 
ATOM      5  C   LIG d   1      -7.029  92.392 117.414  0.00  0.00    -0.047 C 
ATOM      6  C   LIG d   1      -5.676  92.943 117.918  0.00  0.00     0.091 C 
ENDROOT
BRANCH   1   7
ATOM      7  O   LIG d   1      -3.269  92.482 117.912  0.00  0.00    -0.368 OA
BRANCH   7   8
ATOM      8  C   LIG d   1      -2.143  91.583 118.063  0.00  0.00     0.119 C 
BRANCH   8   9
ATOM      9  C   LIG d   1      -2.151  91.071 119.517  0.00  0.00     0.028 C 
ATOM     10  C   LIG d   1      -2.103  89.536 119.598  0.00  0.00     0.006 C 
ENDBRANCH   8   9
BRANCH   8  11
ATOM     11  C   LIG d   1      -0.812  92.325 117.903  0.00  0.00     0.028 C 
ATOM     12  C   LIG d   1       0.285  91.451 117.274  0.00  0.00     0.006 C 
ENDBRANCH   8  11
ENDBRANCH   7   8
ENDBRANCH   1   7
BRANCH   6  13
ATOM     13  N   LIG d   1      -5.755  93.452 119.312  0.00  0.00    -0.311 N 
ATOM     14  C   LIG d   1      -5.992  94.727 119.614  0.00  0.00     0.210 C 
ATOM     15  C   LIG d   1      -6.013  95.044 121.113  0.00  0.00     0.109 C 
ATOM     16  O   LIG d   1      -6.218  95.621 118.784  0.00  0.00    -0.276 OA
ATOM     17  H   LIG d   1      -5.615  92.789 120.049  0.00  0.00     0.149 HD
ENDBRANCH   6  13
BRANCH   5  18
ATOM     18  N   LIG d   1      -8.078  93.425 117.328  0.00  0.00     0.381 N 
ATOM     19  H   LIG d   1      -8.339  93.564 116.373  0.00  0.00    -0.090 HD
ATOM     20  H   LIG d   1      -7.713  94.290 117.685  0.00  0.00    -0.090 HD
ATOM     21  H   LIG d   1      -8.874  93.147 117.860  0.00  0.00    -0.090 HD
ENDBRANCH   5  18
BRANCH   3  22
ATOM     22  C   LIG d   1      -5.856  89.877 115.001  0.00  0.00     0.382 C 
ATOM     23  O   LIG d   1      -6.923  89.690 114.368  0.00  0.00    -0.241 OA
ATOM     24  O   LIG d   1      -4.893  89.109 114.819  0.00  0.00    -0.241 OA
ENDBRANCH   3  22
TORSDOF 7
ENDMDL
MODEL 4
REMARK VINA RESULT:      -5.3      1.683      2.185
REMARK  7 active torsions:
REMARK  status: ('A' for Active; 'I' for Inactive)
REMARK    1  A    between atoms: C_2  and  C_3 
REMARK    2  A    between atoms: C_3  and  O_6 
REMARK    3  A    between atoms: C_3  and  C_4 
REMARK    4  A    between atoms: C_7  and  O_6 
REMARK    5  A    between atoms: C_9  and  C_10 
REMARK    6  A    between atoms: N_15  and  C_14 
REMARK    7  A    between atoms: N_20  and  C_19 
REMARK       I    between atoms: C_22  and  N_20 
ROOT
ATOM      1  C   LIG d   1      -8.322  76.233 116.988  0.00  0.00     0.161 C 
ATOM      2  C   LIG d   1      -7.361  75.333 116.499  0.00  0.00     0.016 C 
ATOM      3  C   LIG d   1      -5.975  75.613 116.473  0.00  0.00     0.038 C 
ATOM      4  C   LIG d   1      -5.438  76.759 117.077  0.00  0.00     0.028 C 
ATOM      5  C   LIG d   1      -6.416  77.929 117.133  0.00  0.00    -0.047 C 
ATOM      6  C   LIG d   1      -7.745  77.443 117.754  0.00  0.00     0.091 C 
ENDROOT
BRANCH   1   7
ATOM      7  O   LIG d   1      -9.277  75.531 117.808  0.00  0.00    -0.368 OA
BRANCH   7   8
ATOM      8  C   LIG d   1     -10.637  75.492 117.311  0.00  0.00     0.119 C 
BRANCH   8   9
ATOM      9  C   LIG d   1     -11.499  76.356 118.253  0.00  0.00     0.028 C 
ATOM     10  C   LIG d   1     -10.965  76.364 119.695  0.00  0.00     0.006 C 
ENDBRANCH   8   9
BRANCH   8  11
ATOM     11  C   LIG d   1     -11.225  74.081 117.404  0.00  0.00     0.028 C 
ATOM     12  C   LIG d   1     -10.153  73.004 117.637  0.00  0.00     0.006 C 
ENDBRANCH   8  11
ENDBRANCH   7   8
ENDBRANCH   1   7
BRANCH   6  13
ATOM     13  N   LIG d   1      -8.785  78.504 117.768  0.00  0.00    -0.311 N 
ATOM     14  C   LIG d   1      -8.997  79.310 118.807  0.00  0.00     0.210 C 
ATOM     15  C   LIG d   1     -10.132  80.321 118.621  0.00  0.00     0.109 C 
ATOM     16  O   LIG d   1      -8.330  79.304 119.853  0.00  0.00    -0.276 OA
ATOM     17  H   LIG d   1      -9.351  78.599 116.947  0.00  0.00     0.149 HD
ENDBRANCH   6  13
BRANCH   5  18
ATOM     18  N   LIG d   1      -5.775  79.008 117.908  0.00  0.00     0.381 N 
ATOM     19  H   LIG d   1      -5.245  79.596 117.297  0.00  0.00    -0.090 HD
ATOM     20  H   LIG d   1      -5.146  78.599 118.577  0.00  0.00    -0.090 HD
ATOM     21  H   LIG d   1      -6.469  79.546 118.380  0.00  0.00    -0.090 HD
ENDBRANCH   5  18
BRANCH   3  22
ATOM     22  C   LIG d   1      -5.115  74.758 115.800  0.00  0.00     0.382 C 
ATOM     23  O   LIG d   1      -5.184  74.653 114.552  0.00  0.00    -0.241 OA
ATOM     24  O   LIG d   1      -4.299  74.059 116.431  0.00  0.00    -0.241 OA
ENDBRANCH   3  22
TORSDOF 7
ENDMDL
MODEL 5
REMARK VINA RESULT:      -5.1      2.695      5.028
REMARK  7 active torsions:
REMARK  status: ('A' for Active; 'I' for Inactive)
REMARK    1  A    between atoms: C_2  and  C_3 
REMARK    2  A    between atoms: C_3  and  O_6 
REMARK    3  A    between atoms: C_3  and  C_4 
REMARK    4  A    between atoms: C_7  and  O_6 
REMARK    5  A    between atoms: C_9  and  C_10 
REMARK    6  A    between atoms: N_15  and  C_14 
REMARK    7  A    between atoms: N_20  and  C_19 
REMARK       I    between atoms: C_22  and  N_20 
ROOT
ATOM      1  C   LIG d   1      -8.191  77.240 117.426  0.00  0.00     0.161 C 
ATOM      2  C   LIG d   1      -7.904  78.605 117.594  0.00  0.00     0.016 C 
ATOM      3  C   LIG d   1      -8.758  79.502 118.275  0.00  0.00     0.038 C 
ATOM      4  C   LIG d   1      -9.894  79.060 118.970  0.00  0.00     0.028 C 
ATOM      5  C   LIG d   1     -10.490  77.776 118.404  0.00  0.00    -0.047 C 
ATOM      6  C   LIG d   1      -9.370  76.718 118.273  0.00  0.00     0.091 C 
ENDROOT
BRANCH   1   7
ATOM      7  O   LIG d   1      -7.007  76.457 117.679  0.00  0.00    -0.368 OA
BRANCH   7   8
ATOM      8  C   LIG d   1      -6.061  76.360 116.586  0.00  0.00     0.119 C 
BRANCH   8   9
ATOM      9  C   LIG d   1      -6.717  75.509 115.481  0.00  0.00     0.028 C 
ATOM     10  C   LIG d   1      -6.847  74.029 115.878  0.00  0.00     0.006 C 
ENDBRANCH   8   9
BRANCH   8  11
ATOM     11  C   LIG d   1      -4.807  75.586 117.002  0.00  0.00     0.028 C 
ATOM     12  C   LIG d   1      -4.121  76.185 118.240  0.00  0.00     0.006 C 
ENDBRANCH   8  11
ENDBRANCH   7   8
ENDBRANCH   1   7
BRANCH   6  13
ATOM     13  N   LIG d   1      -9.850  75.458 117.648  0.00  0.00    -0.311 N 
ATOM     14  C   LIG d   1      -9.771  74.269 118.241  0.00  0.00     0.210 C 
ATOM     15  C   LIG d   1     -10.306  73.096 117.413  0.00  0.00     0.109 C 
ATOM     16  O   LIG d   1      -9.337  74.077 119.387  0.00  0.00    -0.276 OA
ATOM     17  H   LIG d   1     -10.245  75.526 116.730  0.00  0.00     0.149 HD
ENDBRANCH   6  13
BRANCH   5  18
ATOM     18  N   LIG d   1     -11.580  77.356 119.304  0.00  0.00     0.381 N 
ATOM     19  H   LIG d   1     -11.251  77.334 120.248  0.00  0.00    -0.090 HD
ATOM     20  H   LIG d   1     -11.872  76.428 119.050  0.00  0.00    -0.090 HD
ATOM     21  H   LIG d   1     -12.348  77.986 119.227  0.00  0.00    -0.090 HD
ENDBRANCH   5  18
BRANCH   3  22
ATOM     22  C   LIG d   1      -8.501  80.863 118.231  0.00  0.00     0.382 C 
ATOM     23  O   LIG d   1      -7.954  81.366 117.220  0.00  0.00    -0.241 OA
ATOM     24  O   LIG d   1      -8.768  81.589 119.208  0.00  0.00    -0.241 OA
ENDBRANCH   3  22
TORSDOF 7
ENDMDL
MODEL 6
REMARK VINA RESULT:      -5.0     11.145     13.569
REMARK  7 active torsions:
REMARK  status: ('A' for Active; 'I' for Inactive)
REMARK    1  A    between atoms: C_2  and  C_3 
REMARK    2  A    between atoms: C_3  and  O_6 
REMARK    3  A    between atoms: C_3  and  C_4 
REMARK    4  A    between atoms: C_7  and  O_6 
REMARK    5  A    between atoms: C_9  and  C_10 
REMARK    6  A    between atoms: N_15  and  C_14 
REMARK    7  A    between atoms: N_20  and  C_19 
REMARK       I    between atoms: C_22  and  N_20 
ROOT
ATOM      1  C   LIG d   1     -16.487  64.880 116.234  0.00  0.00     0.161 C 
ATOM      2  C   LIG d   1     -16.247  65.736 115.147  0.00  0.00     0.016 C 
ATOM      3  C   LIG d   1     -15.500  66.932 115.248  0.00  0.00     0.038 C 
ATOM      4  C   LIG d   1     -14.810  67.278 116.420  0.00  0.00     0.028 C 
ATOM      5  C   LIG d   1     -15.438  66.703 117.685  0.00  0.00    -0.047 C 
ATOM      6  C   LIG d   1     -15.650  65.184 117.494  0.00  0.00     0.091 C 
ENDROOT
BRANCH   1   7
ATOM      7  O   LIG d   1     -16.301  63.509 115.828  0.00  0.00    -0.368 OA
BRANCH   7   8
ATOM      8  C   LIG d   1     -17.500  62.701 115.743  0.00  0.00     0.119 C 
BRANCH   8   9
ATOM      9  C   LIG d   1     -17.269  61.439 116.596  0.00  0.00     0.028 C 
ATOM     10  C   LIG d   1     -18.369  61.234 117.651  0.00  0.00     0.006 C 
ENDBRANCH   8   9
BRANCH   8  11
ATOM     11  C   LIG d   1     -17.729  62.191 114.317  0.00  0.00     0.028 C 
ATOM     12  C   LIG d   1     -18.408  63.232 113.414  0.00  0.00     0.006 C 
ENDBRANCH   8  11
ENDBRANCH   7   8
ENDBRANCH   1   7
BRANCH   6  13
ATOM     13  N   LIG d   1     -16.337  64.558 118.653  0.00  0.00    -0.311 N 
ATOM     14  C   LIG d   1     -15.813  63.563 119.367  0.00  0.00     0.210 C 
ATOM     15  C   LIG d   1     -16.697  63.049 120.508  0.00  0.00     0.109 C 
ATOM     16  O   LIG d   1     -14.686  63.079 119.184  0.00  0.00    -0.276 OA
ATOM     17  H   LIG d   1     -17.244  64.911 118.891  0.00  0.00     0.149 HD
ENDBRANCH   6  13
BRANCH   5  18
ATOM     18  N   LIG d   1     -14.544  67.026 118.813  0.00  0.00     0.381 N 
ATOM     19  H   LIG d   1     -13.755  66.410 118.806  0.00  0.00    -0.090 HD
ATOM     20  H   LIG d   1     -15.044  66.888 119.673  0.00  0.00    -0.090 HD
ATOM     21  H   LIG d   1     -14.237  67.971 118.745  0.00  0.00    -0.090 HD
ENDBRANCH   5  18
BRANCH   3  22
ATOM     22  C   LIG d   1     -15.470  67.816 114.181  0.00  0.00     0.382 C 
ATOM     23  O   LIG d   1     -15.079  68.996 114.354  0.00  0.00    -0.241 OA
ATOM     24  O   LIG d   1     -15.872  67.462 113.056  0.00  0.00    -0.241 OA
ENDBRANCH   3  22
TORSDOF 7
ENDMDL
MODEL 7
REMARK VINA RESULT:      -4.9     15.257     17.482
REMARK  7 active torsions:
REMARK  status: ('A' for Active; 'I' for Inactive)
REMARK    1  A    between atoms: C_2  and  C_3 
REMARK    2  A    between atoms: C_3  and  O_6 
REMARK    3  A    between atoms: C_3  and  C_4 
REMARK    4  A    between atoms: C_7  and  O_6 
REMARK    5  A    between atoms: C_9  and  C_10 
REMARK    6  A    between atoms: N_15  and  C_14 
REMARK    7  A    between atoms: N_20  and  C_19 
REMARK       I    between atoms: C_22  and  N_20 
ROOT
ATOM      1  C   LIG d   1      -4.301  91.695 117.488  0.00  0.00     0.161 C 
ATOM      2  C   LIG d   1      -3.876  92.455 118.590  0.00  0.00     0.016 C 
ATOM      3  C   LIG d   1      -4.714  93.359 119.283  0.00  0.00     0.038 C 
ATOM      4  C   LIG d   1      -6.087  93.452 119.012  0.00  0.00     0.028 C 
ATOM      5  C   LIG d   1      -6.449  93.076 117.579  0.00  0.00    -0.047 C 
ATOM      6  C   LIG d   1      -5.825  91.701 117.248  0.00  0.00     0.091 C 
ENDROOT
BRANCH   1   7
ATOM      7  O   LIG d   1      -3.819  90.342 117.612  0.00  0.00    -0.368 OA
BRANCH   7   8
ATOM      8  C   LIG d   1      -2.632  90.161 118.422  0.00  0.00     0.119 C 
BRANCH   8   9
ATOM      9  C   LIG d   1      -1.422  90.123 117.469  0.00  0.00     0.028 C 
ATOM     10  C   LIG d   1      -0.495  91.338 117.649  0.00  0.00     0.006 C 
ENDBRANCH   8   9
BRANCH   8  11
ATOM     11  C   LIG d   1      -2.638  88.799 119.123  0.00  0.00     0.028 C 
ATOM     12  C   LIG d   1      -1.363  88.544 119.942  0.00  0.00     0.006 C 
ENDBRANCH   8  11
ENDBRANCH   7   8
ENDBRANCH   1   7
BRANCH   6  13
ATOM     13  N   LIG d   1      -6.060  91.297 115.838  0.00  0.00    -0.311 N 
ATOM     14  C   LIG d   1      -7.096  90.553 115.451  0.00  0.00     0.210 C 
ATOM     15  C   LIG d   1      -7.139  90.234 113.953  0.00  0.00     0.109 C 
ATOM     16  O   LIG d   1      -8.000  90.155 116.201  0.00  0.00    -0.276 OA
ATOM     17  H   LIG d   1      -5.392  91.603 115.158  0.00  0.00     0.149 HD
ENDBRANCH   6  13
BRANCH   5  18
ATOM     18  N   LIG d   1      -7.920  93.084 117.474  0.00  0.00     0.381 N 
ATOM     19  H   LIG d   1      -8.319  92.622 118.267  0.00  0.00    -0.090 HD
ATOM     20  H   LIG d   1      -8.190  92.581 116.647  0.00  0.00    -0.090 HD
ATOM     21  H   LIG d   1      -8.254  94.022 117.425  0.00  0.00    -0.090 HD
ENDBRANCH   5  18
BRANCH   3  22
ATOM     22  C   LIG d   1      -4.170  94.210 120.232  0.00  0.00     0.382 C 
ATOM     23  O   LIG d   1      -4.889  95.085 120.774  0.00  0.00    -0.241 OA
ATOM     24  O   LIG d   1      -2.961  94.145 120.521  0.00  0.00    -0.241 OA
ENDBRANCH   3  22
TORSDOF 7
ENDMDL
MODEL 8
REMARK VINA RESULT:      -4.8      1.774      2.632
REMARK  7 active torsions:
REMARK  status: ('A' for Active; 'I' for Inactive)
REMARK    1  A    between atoms: C_2  and  C_3 
REMARK    2  A    between atoms: C_3  and  O_6 
REMARK    3  A    between atoms: C_3  and  C_4 
REMARK    4  A    between atoms: C_7  and  O_6 
REMARK    5  A    between atoms: C_9  and  C_10 
REMARK    6  A    between atoms: N_15  and  C_14 
REMARK    7  A    between atoms: N_20  and  C_19 
REMARK       I    between atoms: C_22  and  N_20 
ROOT
ATOM      1  C   LIG d   1      -7.399  76.223 116.498  0.00  0.00     0.161 C 
ATOM      2  C   LIG d   1      -6.382  75.302 116.195  0.00  0.00     0.016 C 
ATOM      3  C   LIG d   1      -5.094  75.346 116.777  0.00  0.00     0.038 C 
ATOM      4  C   LIG d   1      -4.783  76.229 117.821  0.00  0.00     0.028 C 
ATOM      5  C   LIG d   1      -5.618  77.505 117.806  0.00  0.00    -0.047 C 
ATOM      6  C   LIG d   1      -7.113  77.125 117.717  0.00  0.00     0.091 C 
ENDROOT
BRANCH   1   7
ATOM      7  O   LIG d   1      -8.651  75.529 116.671  0.00  0.00    -0.368 OA
BRANCH   7   8
ATOM      8  C   LIG d   1      -8.747  74.668 117.832  0.00  0.00     0.119 C 
BRANCH   8   9
ATOM      9  C   LIG d   1      -9.463  73.376 117.393  0.00  0.00     0.028 C 
ATOM     10  C   LIG d   1      -8.552  72.451 116.569  0.00  0.00     0.006 C 
ENDBRANCH   8   9
BRANCH   8  11
ATOM     11  C   LIG d   1      -9.645  75.284 118.909  0.00  0.00     0.028 C 
ATOM     12  C   LIG d   1     -10.828  76.069 118.321  0.00  0.00     0.006 C 
ENDBRANCH   8  11
ENDBRANCH   7   8
ENDBRANCH   1   7
BRANCH   6  13
ATOM     13  N   LIG d   1      -7.996  78.316 117.611  0.00  0.00    -0.311 N 
ATOM     14  C   LIG d   1      -8.574  78.895 118.662  0.00  0.00     0.210 C 
ATOM     15  C   LIG d   1      -9.461  80.099 118.330  0.00  0.00     0.109 C 
ATOM     16  O   LIG d   1      -8.411  78.546 119.841  0.00  0.00    -0.276 OA
ATOM     17  H   LIG d   1      -8.157  78.684 116.694  0.00  0.00     0.149 HD
ENDBRANCH   6  13
BRANCH   5  18
ATOM     18  N   LIG d   1      -5.287  78.269 119.023  0.00  0.00     0.381 N 
ATOM     19  H   LIG d   1      -4.515  78.879 118.841  0.00  0.00    -0.090 HD
ATOM     20  H   LIG d   1      -5.018  77.627 119.747  0.00  0.00    -0.090 HD
ATOM     21  H   LIG d   1      -6.077  78.801 119.317  0.00  0.00    -0.090 HD
ENDBRANCH   5  18
BRANCH   3  22
ATOM     22  C   LIG d   1      -4.090  74.526 116.286  0.00  0.00     0.382 C 
ATOM     23  O   LIG d   1      -3.795  74.558 115.067  0.00  0.00    -0.241 OA
ATOM     24  O   LIG d   1      -3.506  73.723 117.038  0.00  0.00    -0.241 OA
ENDBRANCH   3  22
TORSDOF 7
ENDMDL
MODEL 9
REMARK VINA RESULT:      -4.8     14.521     16.856
REMARK  7 active torsions:
REMARK  status: ('A' for Active; 'I' for Inactive)
REMARK    1  A    between atoms: C_2  and  C_3 
REMARK    2  A    between atoms: C_3  and  O_6 
REMARK    3  A    between atoms: C_3  and  C_4 
REMARK    4  A    between atoms: C_7  and  O_6 
REMARK    5  A    between atoms: C_9  and  C_10 
REMARK    6  A    between atoms: N_15  and  C_14 
REMARK    7  A    between atoms: N_20  and  C_19 
REMARK       I    between atoms: C_22  and  N_20 
ROOT
ATOM      1  C   LIG d   1       1.491  87.857 116.079  0.00  0.00     0.161 C 
ATOM      2  C   LIG d   1       0.283  87.665 116.771  0.00  0.00     0.016 C 
ATOM      3  C   LIG d   1      -0.394  88.699 117.457  0.00  0.00     0.038 C 
ATOM      4  C   LIG d   1       0.016  90.038 117.371  0.00  0.00     0.028 C 
ATOM      5  C   LIG d   1       1.508  90.198 117.102  0.00  0.00    -0.047 C 
ATOM      6  C   LIG d   1       1.894  89.333 115.881  0.00  0.00     0.091 C 
ENDROOT
BRANCH   1   7
ATOM      7  O   LIG d   1       1.440  87.176 114.810  0.00  0.00    -0.368 OA
BRANCH   7   8
ATOM      8  C   LIG d   1       1.947  85.819 114.793  0.00  0.00     0.119 C 
BRANCH   8   9
ATOM      9  C   LIG d   1       3.363  85.861 114.187  0.00  0.00     0.028 C 
ATOM     10  C   LIG d   1       4.462  85.680 115.248  0.00  0.00     0.006 C 
ENDBRANCH   8   9
BRANCH   8  11
ATOM     11  C   LIG d   1       1.129  84.930 113.852  0.00  0.00     0.028 C 
ATOM     12  C   LIG d   1      -0.177  85.595 113.390  0.00  0.00     0.006 C 
ENDBRANCH   8  11
ENDBRANCH   7   8
ENDBRANCH   1   7
BRANCH   6  13
ATOM     13  N   LIG d   1       3.353  89.366 115.601  0.00  0.00    -0.311 N 
ATOM     14  C   LIG d   1       3.863  89.444 114.373  0.00  0.00     0.210 C 
ATOM     15  C   LIG d   1       5.393  89.446 114.306  0.00  0.00     0.109 C 
ATOM     16  O   LIG d   1       3.192  89.545 113.334  0.00  0.00    -0.276 OA
ATOM     17  H   LIG d   1       3.970  89.320 116.388  0.00  0.00     0.149 HD
ENDBRANCH   6  13
BRANCH   5  18
ATOM     18  N   LIG d   1       1.773  91.635 116.899  0.00  0.00     0.381 N 
ATOM     19  H   LIG d   1       1.540  91.893 115.961  0.00  0.00    -0.090 HD
ATOM     20  H   LIG d   1       2.752  91.809 117.041  0.00  0.00    -0.090 HD
ATOM     21  H   LIG d   1       1.236  92.175 117.542  0.00  0.00    -0.090 HD
ENDBRANCH   5  18
BRANCH   3  22
ATOM     22  C   LIG d   1      -1.472  88.391 118.273  0.00  0.00     0.382 C 
ATOM     23  O   LIG d   1      -2.636  88.694 117.915  0.00  0.00    -0.241 OA
ATOM     24  O   LIG d   1      -1.291  87.855 119.383  0.00  0.00    -0.241 OA
ENDBRANCH   3  22
TORSDOF 7
ENDMDL
