MODEL 1
REMARK VINA RESULT:      -6.0      0.000      0.000
REMARK  7 active torsions:
REMARK  status: ('A' for Active; 'I' for Inactive)
REMARK    1  A    between atoms: C_2  and  C_3 
REMARK    2  A    between atoms: C_3  and  O_6 
REMARK    3  A    between atoms: C_3  and  C_4 
REMARK    4  A    between atoms: C_7  and  O_6 
REMARK    5  A    between atoms: C_9  and  C_10 
REMARK    6  A    between atoms: N_15  and  C_14 
REMARK    7  A    between atoms: N_20  and  C_19 
REMARK       I    between atoms: C_22  and  N_20 
ROOT
ATOM      1  C   LIG d   1      -7.736  75.559 117.840  0.00  0.00     0.161 C 
ATOM      2  C   LIG d   1      -8.944  76.244 118.058  0.00  0.00     0.016 C 
ATOM      3  C   LIG d   1      -9.026  77.647 118.211  0.00  0.00     0.038 C 
ATOM      4  C   LIG d   1      -7.917  78.482 118.003  0.00  0.00     0.028 C 
ATOM      5  C   LIG d   1      -6.583  77.797 118.280  0.00  0.00    -0.047 C 
ATOM      6  C   LIG d   1      -6.533  76.463 117.500  0.00  0.00     0.091 C 
ENDROOT
BRANCH   1   7
ATOM      7  O   LIG d   1      -7.919  74.562 116.816  0.00  0.00    -0.368 OA
BRANCH   7   8
ATOM      8  C   LIG d   1      -7.889  73.182 117.258  0.00  0.00     0.119 C 
BRANCH   8   9
ATOM      9  C   LIG d   1      -7.009  72.397 116.266  0.00  0.00     0.028 C 
ATOM     10  C   LIG d   1      -6.342  73.310 115.223  0.00  0.00     0.006 C 
ENDBRANCH   8   9
BRANCH   8  11
ATOM     11  C   LIG d   1      -9.276  72.538 117.167  0.00  0.00     0.028 C 
ATOM     12  C   LIG d   1      -9.219  71.003 117.141  0.00  0.00     0.006 C 
ENDBRANCH   8  11
ENDBRANCH   7   8
ENDBRANCH   1   7
BRANCH   6  13
ATOM     13  N   LIG d   1      -5.296  75.689 117.781  0.00  0.00    -0.311 N 
ATOM     14  C   LIG d   1      -4.204  75.750 117.021  0.00  0.00     0.210 C 
ATOM     15  C   LIG d   1      -3.047  74.856 117.477  0.00  0.00     0.109 C 
ATOM     16  O   LIG d   1      -4.072  76.484 116.030  0.00  0.00    -0.276 OA
ATOM     17  H   LIG d   1      -5.304  75.091 118.584  0.00  0.00     0.149 HD
ENDBRANCH   6  13
BRANCH   5  18
ATOM     18  N   LIG d   1      -5.512  78.734 117.893  0.00  0.00     0.381 N 
ATOM     19  H   LIG d   1      -5.758  79.196 117.040  0.00  0.00    -0.090 HD
ATOM     20  H   LIG d   1      -4.666  78.215 117.738  0.00  0.00    -0.090 HD
ATOM     21  H   LIG d   1      -5.370  79.407 118.614  0.00  0.00    -0.090 HD
ENDBRANCH   5  18
BRANCH   3  22
ATOM     22  C   LIG d   1     -10.219  78.226 118.614  0.00  0.00     0.382 C 
ATOM     23  O   LIG d   1     -11.186  77.500 118.950  0.00  0.00    -0.241 OA
ATOM     24  O   LIG d   1     -10.357  79.464 118.603  0.00  0.00    -0.241 OA
ENDBRANCH   3  22
TORSDOF 7
ENDMDL
MODEL 2
REMARK VINA RESULT:      -5.5      1.346      2.365
REMARK  7 active torsions:
REMARK  status: ('A' for Active; 'I' for Inactive)
REMARK    1  A    between atoms: C_2  and  C_3 
REMARK    2  A    between atoms: C_3  and  O_6 
REMARK    3  A    between atoms: C_3  and  C_4 
REMARK    4  A    between atoms: C_7  and  O_6 
REMARK    5  A    between atoms: C_9  and  C_10 
REMARK    6  A    between atoms: N_15  and  C_14 
REMARK    7  A    between atoms: N_20  and  C_19 
REMARK       I    between atoms: C_22  and  N_20 
ROOT
ATOM      1  C   LIG d   1      -6.275  75.045 117.997  0.00  0.00     0.161 C 
ATOM      2  C   LIG d   1      -7.655  75.293 117.911  0.00  0.00     0.016 C 
ATOM      3  C   LIG d   1      -8.207  76.590 117.796  0.00  0.00     0.038 C 
ATOM      4  C   LIG d   1      -7.403  77.724 117.605  0.00  0.00     0.028 C 
ATOM      5  C   LIG d   1      -6.002  77.579 118.191  0.00  0.00    -0.047 C 
ATOM      6  C   LIG d   1      -5.378  76.260 117.679  0.00  0.00     0.091 C 
ENDROOT
BRANCH   1   7
ATOM      7  O   LIG d   1      -5.925  73.931 117.153  0.00  0.00    -0.368 OA
BRANCH   7   8
ATOM      8  C   LIG d   1      -6.731  73.756 115.961  0.00  0.00     0.119 C 
BRANCH   8   9
ATOM      9  C   LIG d   1      -7.010  72.248 115.807  0.00  0.00     0.028 C 
ATOM     10  C   LIG d   1      -8.232  71.791 116.621  0.00  0.00     0.006 C 
ENDBRANCH   8   9
BRANCH   8  11
ATOM     11  C   LIG d   1      -5.957  74.156 114.702  0.00  0.00     0.028 C 
ATOM     12  C   LIG d   1      -6.215  75.612 114.281  0.00  0.00     0.006 C 
ENDBRANCH   8  11
ENDBRANCH   7   8
ENDBRANCH   1   7
BRANCH   6  13
ATOM     13  N   LIG d   1      -4.040  75.999 118.270  0.00  0.00    -0.311 N 
ATOM     14  C   LIG d   1      -2.992  75.587 117.559  0.00  0.00     0.210 C 
ATOM     15  C   LIG d   1      -1.712  75.358 118.368  0.00  0.00     0.109 C 
ATOM     16  O   LIG d   1      -2.993  75.419 116.331  0.00  0.00    -0.276 OA
ATOM     17  H   LIG d   1      -3.942  76.140 119.257  0.00  0.00     0.149 HD
ENDBRANCH   6  13
BRANCH   5  18
ATOM     18  N   LIG d   1      -5.230  78.774 117.801  0.00  0.00     0.381 N 
ATOM     19  H   LIG d   1      -4.979  78.714 116.835  0.00  0.00    -0.090 HD
ATOM     20  H   LIG d   1      -4.386  78.806 118.345  0.00  0.00    -0.090 HD
ATOM     21  H   LIG d   1      -5.770  79.596 117.962  0.00  0.00    -0.090 HD
ENDBRANCH   5  18
BRANCH   3  22
ATOM     22  C   LIG d   1      -9.577  76.766 117.911  0.00  0.00     0.382 C 
ATOM     23  O   LIG d   1     -10.037  77.867 118.301  0.00  0.00    -0.241 OA
ATOM     24  O   LIG d   1     -10.357  75.825 117.673  0.00  0.00    -0.241 OA
ENDBRANCH   3  22
TORSDOF 7
ENDMDL
MODEL 3
REMARK VINA RESULT:      -5.3      2.470      4.766
REMARK  7 active torsions:
REMARK  status: ('A' for Active; 'I' for Inactive)
REMARK    1  A    between atoms: C_2  and  C_3 
REMARK    2  A    between atoms: C_3  and  O_6 
REMARK    3  A    between atoms: C_3  and  C_4 
REMARK    4  A    between atoms: C_7  and  O_6 
REMARK    5  A    between atoms: C_9  and  C_10 
REMARK    6  A    between atoms: N_15  and  C_14 
REMARK    7  A    between atoms: N_20  and  C_19 
REMARK       I    between atoms: C_22  and  N_20 
ROOT
ATOM      1  C   LIG d   1      -5.446  74.643 117.079  0.00  0.00     0.161 C 
ATOM      2  C   LIG d   1      -6.310  73.581 116.765  0.00  0.00     0.016 C 
ATOM      3  C   LIG d   1      -7.701  73.610 117.014  0.00  0.00     0.038 C 
ATOM      4  C   LIG d   1      -8.351  74.771 117.459  0.00  0.00     0.028 C 
ATOM      5  C   LIG d   1      -7.448  75.699 118.265  0.00  0.00    -0.047 C 
ATOM      6  C   LIG d   1      -6.153  75.960 117.462  0.00  0.00     0.091 C 
ENDROOT
BRANCH   1   7
ATOM      7  O   LIG d   1      -4.529  74.866 115.989  0.00  0.00    -0.368 OA
BRANCH   7   8
ATOM      8  C   LIG d   1      -4.874  75.934 115.074  0.00  0.00     0.119 C 
BRANCH   8   9
ATOM      9  C   LIG d   1      -5.772  75.331 113.976  0.00  0.00     0.028 C 
ATOM     10  C   LIG d   1      -5.005  74.366 113.056  0.00  0.00     0.006 C 
ENDBRANCH   8   9
BRANCH   8  11
ATOM     11  C   LIG d   1      -3.637  76.463 114.342  0.00  0.00     0.028 C 
ATOM     12  C   LIG d   1      -2.845  77.485 115.172  0.00  0.00     0.006 C 
ENDBRANCH   8  11
ENDBRANCH   7   8
ENDBRANCH   1   7
BRANCH   6  13
ATOM     13  N   LIG d   1      -5.178  76.792 118.215  0.00  0.00    -0.311 N 
ATOM     14  C   LIG d   1      -5.080  78.113 118.077  0.00  0.00     0.210 C 
ATOM     15  C   LIG d   1      -3.995  78.774 118.932  0.00  0.00     0.109 C 
ATOM     16  O   LIG d   1      -5.811  78.804 117.352  0.00  0.00    -0.276 OA
ATOM     17  H   LIG d   1      -4.566  76.316 118.849  0.00  0.00     0.149 HD
ENDBRANCH   6  13
BRANCH   5  18
ATOM     18  N   LIG d   1      -8.211  76.929 118.547  0.00  0.00     0.381 N 
ATOM     19  H   LIG d   1      -7.945  77.648 117.904  0.00  0.00    -0.090 HD
ATOM     20  H   LIG d   1      -7.993  77.241 119.477  0.00  0.00    -0.090 HD
ATOM     21  H   LIG d   1      -9.188  76.749 118.470  0.00  0.00    -0.090 HD
ENDBRANCH   5  18
BRANCH   3  22
ATOM     22  C   LIG d   1      -8.452  72.455 116.856  0.00  0.00     0.382 C 
ATOM     23  O   LIG d   1      -8.052  71.548 116.085  0.00  0.00    -0.241 OA
ATOM     24  O   LIG d   1      -9.545  72.327 117.439  0.00  0.00    -0.241 OA
ENDBRANCH   3  22
TORSDOF 7
ENDMDL
MODEL 4
REMARK VINA RESULT:      -5.2     18.250     21.152
REMARK  7 active torsions:
REMARK  status: ('A' for Active; 'I' for Inactive)
REMARK    1  A    between atoms: C_2  and  C_3 
REMARK    2  A    between atoms: C_3  and  O_6 
REMARK    3  A    between atoms: C_3  and  C_4 
REMARK    4  A    between atoms: C_7  and  O_6 
REMARK    5  A    between atoms: C_9  and  C_10 
REMARK    6  A    between atoms: N_15  and  C_14 
REMARK    7  A    between atoms: N_20  and  C_19 
REMARK       I    between atoms: C_22  and  N_20 
ROOT
ATOM      1  C   LIG d   1       1.018  57.187 117.551  0.00  0.00     0.161 C 
ATOM      2  C   LIG d   1       1.023  56.050 116.726  0.00  0.00     0.016 C 
ATOM      3  C   LIG d   1       1.828  54.914 116.973  0.00  0.00     0.038 C 
ATOM      4  C   LIG d   1       2.575  54.776 118.152  0.00  0.00     0.028 C 
ATOM      5  C   LIG d   1       2.991  56.109 118.765  0.00  0.00    -0.047 C 
ATOM      6  C   LIG d   1       1.742  57.010 118.902  0.00  0.00     0.091 C 
ENDROOT
BRANCH   1   7
ATOM      7  O   LIG d   1      -0.338  57.630 117.764  0.00  0.00    -0.368 OA
BRANCH   7   8
ATOM      8  C   LIG d   1      -0.836  58.624 116.835  0.00  0.00     0.119 C 
BRANCH   8   9
ATOM      9  C   LIG d   1       0.287  59.655 116.612  0.00  0.00     0.028 C 
ATOM     10  C   LIG d   1       0.599  59.870 115.122  0.00  0.00     0.006 C 
ENDBRANCH   8   9
BRANCH   8  11
ATOM     11  C   LIG d   1      -2.000  59.416 117.439  0.00  0.00     0.028 C 
ATOM     12  C   LIG d   1      -1.540  60.451 118.478  0.00  0.00     0.006 C 
ENDBRANCH   8  11
ENDBRANCH   7   8
ENDBRANCH   1   7
BRANCH   6  13
ATOM     13  N   LIG d   1       2.074  58.364 119.416  0.00  0.00    -0.311 N 
ATOM     14  C   LIG d   1       1.392  58.967 120.389  0.00  0.00     0.210 C 
ATOM     15  C   LIG d   1       1.889  60.369 120.753  0.00  0.00     0.109 C 
ATOM     16  O   LIG d   1       0.444  58.460 121.006  0.00  0.00    -0.276 OA
ATOM     17  H   LIG d   1       2.849  58.836 118.992  0.00  0.00     0.149 HD
ENDBRANCH   6  13
BRANCH   5  18
ATOM     18  N   LIG d   1       3.641  55.821 120.057  0.00  0.00     0.381 N 
ATOM     19  H   LIG d   1       4.629  55.731 119.927  0.00  0.00    -0.090 HD
ATOM     20  H   LIG d   1       3.289  54.950 120.412  0.00  0.00    -0.090 HD
ATOM     21  H   LIG d   1       3.449  56.553 120.706  0.00  0.00    -0.090 HD
ENDBRANCH   5  18
BRANCH   3  22
ATOM     22  C   LIG d   1       1.922  53.917 116.013  0.00  0.00     0.382 C 
ATOM     23  O   LIG d   1       3.048  53.532 115.618  0.00  0.00    -0.241 OA
ATOM     24  O   LIG d   1       0.894  53.430 115.505  0.00  0.00    -0.241 OA
ENDBRANCH   3  22
TORSDOF 7
ENDMDL
MODEL 5
REMARK VINA RESULT:      -5.1      2.249      3.340
REMARK  7 active torsions:
REMARK  status: ('A' for Active; 'I' for Inactive)
REMARK    1  A    between atoms: C_2  and  C_3 
REMARK    2  A    between atoms: C_3  and  O_6 
REMARK    3  A    between atoms: C_3  and  C_4 
REMARK    4  A    between atoms: C_7  and  O_6 
REMARK    5  A    between atoms: C_9  and  C_10 
REMARK    6  A    between atoms: N_15  and  C_14 
REMARK    7  A    between atoms: N_20  and  C_19 
REMARK       I    between atoms: C_22  and  N_20 
ROOT
ATOM      1  C   LIG d   1      -6.417  77.145 117.282  0.00  0.00     0.161 C 
ATOM      2  C   LIG d   1      -7.747  76.700 117.370  0.00  0.00     0.016 C 
ATOM      3  C   LIG d   1      -8.787  77.465 117.946  0.00  0.00     0.038 C 
ATOM      4  C   LIG d   1      -8.596  78.798 118.341  0.00  0.00     0.028 C 
ATOM      5  C   LIG d   1      -7.157  79.113 118.735  0.00  0.00    -0.047 C 
ATOM      6  C   LIG d   1      -6.213  78.640 117.606  0.00  0.00     0.091 C 
ENDROOT
BRANCH   1   7
ATOM      7  O   LIG d   1      -5.884  76.837 115.979  0.00  0.00    -0.368 OA
BRANCH   7   8
ATOM      8  C   LIG d   1      -6.521  75.745 115.271  0.00  0.00     0.119 C 
BRANCH   8   9
ATOM      9  C   LIG d   1      -5.777  74.450 115.651  0.00  0.00     0.028 C 
ATOM     10  C   LIG d   1      -6.738  73.284 115.938  0.00  0.00     0.006 C 
ENDBRANCH   8   9
BRANCH   8  11
ATOM     11  C   LIG d   1      -6.345  75.885 113.756  0.00  0.00     0.028 C 
ATOM     12  C   LIG d   1      -4.991  75.353 113.262  0.00  0.00     0.006 C 
ENDBRANCH   8  11
ENDBRANCH   7   8
ENDBRANCH   1   7
BRANCH   6  13
ATOM     13  N   LIG d   1      -4.779  78.834 117.948  0.00  0.00    -0.311 N 
ATOM     14  C   LIG d   1      -4.054  79.862 117.511  0.00  0.00     0.210 C 
ATOM     15  C   LIG d   1      -2.591  79.860 117.965  0.00  0.00     0.109 C 
ATOM     16  O   LIG d   1      -4.492  80.791 116.816  0.00  0.00    -0.276 OA
ATOM     17  H   LIG d   1      -4.352  78.142 118.533  0.00  0.00     0.149 HD
ENDBRANCH   6  13
BRANCH   5  18
ATOM     18  N   LIG d   1      -7.072  80.563 118.990  0.00  0.00     0.381 N 
ATOM     19  H   LIG d   1      -6.121  80.864 118.918  0.00  0.00    -0.090 HD
ATOM     20  H   LIG d   1      -7.392  80.748 119.924  0.00  0.00    -0.090 HD
ATOM     21  H   LIG d   1      -7.635  81.058 118.334  0.00  0.00    -0.090 HD
ENDBRANCH   5  18
BRANCH   3  22
ATOM     22  C   LIG d   1     -10.025  76.883 118.170  0.00  0.00     0.382 C 
ATOM     23  O   LIG d   1     -10.926  77.531 118.755  0.00  0.00    -0.241 OA
ATOM     24  O   LIG d   1     -10.239  75.703 117.833  0.00  0.00    -0.241 OA
ENDBRANCH   3  22
TORSDOF 7
ENDMDL
MODEL 6
REMARK VINA RESULT:      -5.1     17.979     20.558
REMARK  7 active torsions:
REMARK  status: ('A' for Active; 'I' for Inactive)
REMARK    1  A    between atoms: C_2  and  C_3 
REMARK    2  A    between atoms: C_3  and  O_6 
REMARK    3  A    between atoms: C_3  and  C_4 
REMARK    4  A    between atoms: C_7  and  O_6 
REMARK    5  A    between atoms: C_9  and  C_10 
REMARK    6  A    between atoms: N_15  and  C_14 
REMARK    7  A    between atoms: N_20  and  C_19 
REMARK       I    between atoms: C_22  and  N_20 
ROOT
ATOM      1  C   LIG d   1       2.070  58.318 118.121  0.00  0.00     0.161 C 
ATOM      2  C   LIG d   1       1.054  59.200 117.714  0.00  0.00     0.016 C 
ATOM      3  C   LIG d   1      -0.090  58.789 116.993  0.00  0.00     0.038 C 
ATOM      4  C   LIG d   1      -0.373  57.435 116.760  0.00  0.00     0.028 C 
ATOM      5  C   LIG d   1       0.872  56.556 116.710  0.00  0.00    -0.047 C 
ATOM      6  C   LIG d   1       1.724  56.822 117.973  0.00  0.00     0.091 C 
ENDROOT
BRANCH   1   7
ATOM      7  O   LIG d   1       2.456  58.611 119.479  0.00  0.00    -0.368 OA
BRANCH   7   8
ATOM      8  C   LIG d   1       3.325  59.755 119.661  0.00  0.00     0.119 C 
BRANCH   8   9
ATOM      9  C   LIG d   1       4.750  59.220 119.902  0.00  0.00     0.028 C 
ATOM     10  C   LIG d   1       4.780  58.066 120.919  0.00  0.00     0.006 C 
ENDBRANCH   8   9
BRANCH   8  11
ATOM     11  C   LIG d   1       2.964  60.532 120.931  0.00  0.00     0.028 C 
ATOM     12  C   LIG d   1       1.459  60.504 121.239  0.00  0.00     0.006 C 
ENDBRANCH   8  11
ENDBRANCH   7   8
ENDBRANCH   1   7
BRANCH   6  13
ATOM     13  N   LIG d   1       3.003  56.064 117.963  0.00  0.00    -0.311 N 
ATOM     14  C   LIG d   1       3.380  55.251 118.949  0.00  0.00     0.210 C 
ATOM     15  C   LIG d   1       4.744  54.583 118.749  0.00  0.00     0.109 C 
ATOM     16  O   LIG d   1       2.701  54.995 119.954  0.00  0.00    -0.276 OA
ATOM     17  H   LIG d   1       3.601  56.188 117.170  0.00  0.00     0.149 HD
ENDBRANCH   6  13
BRANCH   5  18
ATOM     18  N   LIG d   1       0.425  55.155 116.599  0.00  0.00     0.381 N 
ATOM     19  H   LIG d   1       1.107  54.620 116.100  0.00  0.00    -0.090 HD
ATOM     20  H   LIG d   1      -0.437  55.128 116.083  0.00  0.00    -0.090 HD
ATOM     21  H   LIG d   1       0.288  54.767 117.507  0.00  0.00    -0.090 HD
ENDBRANCH   5  18
BRANCH   3  22
ATOM     22  C   LIG d   1      -0.946  59.741 116.462  0.00  0.00     0.382 C 
ATOM     23  O   LIG d   1      -1.114  59.811 115.221  0.00  0.00    -0.241 OA
ATOM     24  O   LIG d   1      -1.519  60.560 117.205  0.00  0.00    -0.241 OA
ENDBRANCH   3  22
TORSDOF 7
ENDMDL
MODEL 7
REMARK VINA RESULT:      -5.0      1.875      4.957
REMARK  7 active torsions:
REMARK  status: ('A' for Active; 'I' for Inactive)
REMARK    1  A    between atoms: C_2  and  C_3 
REMARK    2  A    between atoms: C_3  and  O_6 
REMARK    3  A    between atoms: C_3  and  C_4 
REMARK    4  A    between atoms: C_7  and  O_6 
REMARK    5  A    between atoms: C_9  and  C_10 
REMARK    6  A    between atoms: N_15  and  C_14 
REMARK    7  A    between atoms: N_20  and  C_19 
REMARK       I    between atoms: C_22  and  N_20 
ROOT
ATOM      1  C   LIG d   1      -7.608  76.151 117.515  0.00  0.00     0.161 C 
ATOM      2  C   LIG d   1      -8.288  74.926 117.405  0.00  0.00     0.016 C 
ATOM      3  C   LIG d   1      -7.640  73.699 117.135  0.00  0.00     0.038 C 
ATOM      4  C   LIG d   1      -6.242  73.588 117.107  0.00  0.00     0.028 C 
ATOM      5  C   LIG d   1      -5.540  74.883 116.712  0.00  0.00    -0.047 C 
ATOM      6  C   LIG d   1      -6.072  76.033 117.598  0.00  0.00     0.091 C 
ENDROOT
BRANCH   1   7
ATOM      7  O   LIG d   1      -8.115  76.891 118.643  0.00  0.00    -0.368 OA
BRANCH   7   8
ATOM      8  C   LIG d   1      -8.697  78.184 118.348  0.00  0.00     0.119 C 
BRANCH   8   9
ATOM      9  C   LIG d   1      -7.803  79.255 119.003  0.00  0.00     0.028 C 
ATOM     10  C   LIG d   1      -7.488  80.420 118.049  0.00  0.00     0.006 C 
ENDBRANCH   8   9
BRANCH   8  11
ATOM     11  C   LIG d   1     -10.070  78.342 119.009  0.00  0.00     0.028 C 
ATOM     12  C   LIG d   1     -10.861  77.026 119.059  0.00  0.00     0.006 C 
ENDBRANCH   8  11
ENDBRANCH   7   8
ENDBRANCH   1   7
BRANCH   6  13
ATOM     13  N   LIG d   1      -5.498  77.351 117.220  0.00  0.00    -0.311 N 
ATOM     14  C   LIG d   1      -4.427  77.880 117.809  0.00  0.00     0.210 C 
ATOM     15  C   LIG d   1      -4.014  79.258 117.281  0.00  0.00     0.109 C 
ATOM     16  O   LIG d   1      -3.760  77.325 118.695  0.00  0.00    -0.276 OA
ATOM     17  H   LIG d   1      -5.959  77.856 116.489  0.00  0.00     0.149 HD
ENDBRANCH   6  13
BRANCH   5  18
ATOM     18  N   LIG d   1      -4.088  74.665 116.857  0.00  0.00     0.381 N 
ATOM     19  H   LIG d   1      -3.609  75.543 116.818  0.00  0.00    -0.090 HD
ATOM     20  H   LIG d   1      -3.767  74.096 116.094  0.00  0.00    -0.090 HD
ATOM     21  H   LIG d   1      -3.896  74.212 117.723  0.00  0.00    -0.090 HD
ENDBRANCH   5  18
BRANCH   3  22
ATOM     22  C   LIG d   1      -8.396  72.571 116.850  0.00  0.00     0.382 C 
ATOM     23  O   LIG d   1      -7.937  71.685 116.089  0.00  0.00    -0.241 OA
ATOM     24  O   LIG d   1      -9.547  72.450 117.309  0.00  0.00    -0.241 OA
ENDBRANCH   3  22
TORSDOF 7
ENDMDL
MODEL 8
REMARK VINA RESULT:      -4.9      2.171      4.947
REMARK  7 active torsions:
REMARK  status: ('A' for Active; 'I' for Inactive)
REMARK    1  A    between atoms: C_2  and  C_3 
REMARK    2  A    between atoms: C_3  and  O_6 
REMARK    3  A    between atoms: C_3  and  C_4 
REMARK    4  A    between atoms: C_7  and  O_6 
REMARK    5  A    between atoms: C_9  and  C_10 
REMARK    6  A    between atoms: N_15  and  C_14 
REMARK    7  A    between atoms: N_20  and  C_19 
REMARK       I    between atoms: C_22  and  N_20 
ROOT
ATOM      1  C   LIG d   1      -5.562  74.988 117.148  0.00  0.00     0.161 C 
ATOM      2  C   LIG d   1      -6.273  73.821 116.821  0.00  0.00     0.016 C 
ATOM      3  C   LIG d   1      -7.671  73.689 116.988  0.00  0.00     0.038 C 
ATOM      4  C   LIG d   1      -8.480  74.776 117.354  0.00  0.00     0.028 C 
ATOM      5  C   LIG d   1      -7.744  75.827 118.178  0.00  0.00    -0.047 C 
ATOM      6  C   LIG d   1      -6.442  76.220 117.443  0.00  0.00     0.091 C 
ENDROOT
BRANCH   1   7
ATOM      7  O   LIG d   1      -4.612  75.289 116.106  0.00  0.00    -0.368 OA
BRANCH   7   8
ATOM      8  C   LIG d   1      -3.291  75.690 116.545  0.00  0.00     0.119 C 
BRANCH   8   9
ATOM      9  C   LIG d   1      -2.346  75.576 115.333  0.00  0.00     0.028 C 
ATOM     10  C   LIG d   1      -3.109  75.429 114.006  0.00  0.00     0.006 C 
ENDBRANCH   8   9
BRANCH   8  11
ATOM     11  C   LIG d   1      -2.731  74.718 117.588  0.00  0.00     0.028 C 
ATOM     12  C   LIG d   1      -1.207  74.546 117.485  0.00  0.00     0.006 C 
ENDBRANCH   8  11
ENDBRANCH   7   8
ENDBRANCH   1   7
BRANCH   6  13
ATOM     13  N   LIG d   1      -5.620  77.183 118.222  0.00  0.00    -0.311 N 
ATOM     14  C   LIG d   1      -5.704  78.504 118.076  0.00  0.00     0.210 C 
ATOM     15  C   LIG d   1      -4.753  79.314 118.963  0.00  0.00     0.109 C 
ATOM     16  O   LIG d   1      -6.498  79.083 117.319  0.00  0.00    -0.276 OA
ATOM     17  H   LIG d   1      -4.972  76.800 118.882  0.00  0.00     0.149 HD
ENDBRANCH   6  13
BRANCH   5  18
ATOM     18  N   LIG d   1      -8.664  76.964 118.372  0.00  0.00     0.381 N 
ATOM     19  H   LIG d   1      -8.938  77.018 119.333  0.00  0.00    -0.090 HD
ATOM     20  H   LIG d   1      -9.488  76.814 117.817  0.00  0.00    -0.090 HD
ATOM     21  H   LIG d   1      -8.220  77.813 118.098  0.00  0.00    -0.090 HD
ENDBRANCH   5  18
BRANCH   3  22
ATOM     22  C   LIG d   1      -8.269  72.449 116.826  0.00  0.00     0.382 C 
ATOM     23  O   LIG d   1      -7.748  71.597 116.066  0.00  0.00    -0.241 OA
ATOM     24  O   LIG d   1      -9.345  72.186 117.396  0.00  0.00    -0.241 OA
ENDBRANCH   3  22
TORSDOF 7
ENDMDL
MODEL 9
REMARK VINA RESULT:      -4.9      2.732      4.728
REMARK  7 active torsions:
REMARK  status: ('A' for Active; 'I' for Inactive)
REMARK    1  A    between atoms: C_2  and  C_3 
REMARK    2  A    between atoms: C_3  and  O_6 
REMARK    3  A    between atoms: C_3  and  C_4 
REMARK    4  A    between atoms: C_7  and  O_6 
REMARK    5  A    between atoms: C_9  and  C_10 
REMARK    6  A    between atoms: N_15  and  C_14 
REMARK    7  A    between atoms: N_20  and  C_19 
REMARK       I    between atoms: C_22  and  N_20 
ROOT
ATOM      1  C   LIG d   1      -6.245  75.039 116.689  0.00  0.00     0.161 C 
ATOM      2  C   LIG d   1      -5.598  74.876 115.453  0.00  0.00     0.016 C 
ATOM      3  C   LIG d   1      -4.541  75.706 115.014  0.00  0.00     0.038 C 
ATOM      4  C   LIG d   1      -3.955  76.667 115.851  0.00  0.00     0.028 C 
ATOM      5  C   LIG d   1      -4.906  77.203 116.916  0.00  0.00    -0.047 C 
ATOM      6  C   LIG d   1      -5.547  76.011 117.662  0.00  0.00     0.091 C 
ENDROOT
BRANCH   1   7
ATOM      7  O   LIG d   1      -6.435  73.754 117.314  0.00  0.00    -0.368 OA
BRANCH   7   8
ATOM      8  C   LIG d   1      -7.805  73.296 117.428  0.00  0.00     0.119 C 
BRANCH   8   9
ATOM      9  C   LIG d   1      -7.941  72.024 116.569  0.00  0.00     0.028 C 
ATOM     10  C   LIG d   1      -9.152  71.168 116.977  0.00  0.00     0.006 C 
ENDBRANCH   8   9
BRANCH   8  11
ATOM     11  C   LIG d   1      -8.782  74.305 116.816  0.00  0.00     0.028 C 
ATOM     12  C   LIG d   1      -9.723  74.930 117.858  0.00  0.00     0.006 C 
ENDBRANCH   8  11
ENDBRANCH   7   8
ENDBRANCH   1   7
BRANCH   6  13
ATOM     13  N   LIG d   1      -6.555  76.445 118.665  0.00  0.00    -0.311 N 
ATOM     14  C   LIG d   1      -6.245  76.788 119.914  0.00  0.00     0.210 C 
ATOM     15  C   LIG d   1      -7.438  77.185 120.789  0.00  0.00     0.109 C 
ATOM     16  O   LIG d   1      -5.093  76.832 120.371  0.00  0.00    -0.276 OA
ATOM     17  H   LIG d   1      -7.511  76.468 118.369  0.00  0.00     0.149 HD
ENDBRANCH   6  13
BRANCH   5  18
ATOM     18  N   LIG d   1      -4.129  78.090 117.802  0.00  0.00     0.381 N 
ATOM     19  H   LIG d   1      -4.643  78.263 118.643  0.00  0.00    -0.090 HD
ATOM     20  H   LIG d   1      -3.983  78.968 117.336  0.00  0.00    -0.090 HD
ATOM     21  H   LIG d   1      -3.252  77.671 118.020  0.00  0.00    -0.090 HD
ENDBRANCH   5  18
BRANCH   3  22
ATOM     22  C   LIG d   1      -4.085  75.605 113.708  0.00  0.00     0.382 C 
ATOM     23  O   LIG d   1      -4.192  74.519 113.089  0.00  0.00    -0.241 OA
ATOM     24  O   LIG d   1      -3.528  76.573 113.157  0.00  0.00    -0.241 OA
ENDBRANCH   3  22
TORSDOF 7
ENDMDL
