MODEL 1
REMARK VINA RESULT:      -5.4      0.000      0.000
REMARK  7 active torsions:
REMARK  status: ('A' for Active; 'I' for Inactive)
REMARK    1  A    between atoms: C_2  and  C_3 
REMARK    2  A    between atoms: C_3  and  O_6 
REMARK    3  A    between atoms: C_3  and  C_4 
REMARK    4  A    between atoms: C_7  and  O_6 
REMARK    5  A    between atoms: C_9  and  C_10 
REMARK    6  A    between atoms: N_15  and  C_14 
REMARK    7  A    between atoms: N_20  and  C_19 
REMARK       I    between atoms: C_22  and  N_20 
ROOT
ATOM      1  C   LIG d   1      -7.634  74.365 118.627  0.00  0.00     0.161 C 
ATOM      2  C   LIG d   1      -7.810  73.024 118.245  0.00  0.00     0.016 C 
ATOM      3  C   LIG d   1      -8.933  72.563 117.521  0.00  0.00     0.038 C 
ATOM      4  C   LIG d   1      -9.890  73.444 116.996  0.00  0.00     0.028 C 
ATOM      5  C   LIG d   1     -10.017  74.741 117.786  0.00  0.00    -0.047 C 
ATOM      6  C   LIG d   1      -8.612  75.359 117.967  0.00  0.00     0.091 C 
ENDROOT
BRANCH   1   7
ATOM      7  O   LIG d   1      -6.271  74.767 118.385  0.00  0.00    -0.368 OA
BRANCH   7   8
ATOM      8  C   LIG d   1      -5.619  74.155 117.245  0.00  0.00     0.119 C 
BRANCH   8   9
ATOM      9  C   LIG d   1      -4.140  73.938 117.619  0.00  0.00     0.028 C 
ATOM     10  C   LIG d   1      -3.625  74.992 118.614  0.00  0.00     0.006 C 
ENDBRANCH   8   9
BRANCH   8  11
ATOM     11  C   LIG d   1      -5.598  75.102 116.041  0.00  0.00     0.028 C 
ATOM     12  C   LIG d   1      -5.285  74.380 114.721  0.00  0.00     0.006 C 
ENDBRANCH   8  11
ENDBRANCH   7   8
ENDBRANCH   1   7
BRANCH   6  13
ATOM     13  N   LIG d   1      -8.636  76.588 118.802  0.00  0.00    -0.311 N 
ATOM     14  C   LIG d   1      -7.989  77.707 118.479  0.00  0.00     0.210 C 
ATOM     15  C   LIG d   1      -8.130  78.850 119.489  0.00  0.00     0.109 C 
ATOM     16  O   LIG d   1      -7.339  77.872 117.436  0.00  0.00    -0.276 OA
ATOM     17  H   LIG d   1      -9.165  76.552 119.651  0.00  0.00     0.149 HD
ENDBRANCH   6  13
BRANCH   5  18
ATOM     18  N   LIG d   1     -10.946  75.622 117.052  0.00  0.00     0.381 N 
ATOM     19  H   LIG d   1     -10.431  76.212 116.429  0.00  0.00    -0.090 HD
ATOM     20  H   LIG d   1     -11.431  76.205 117.711  0.00  0.00    -0.090 HD
ATOM     21  H   LIG d   1     -11.600  75.074 116.538  0.00  0.00    -0.090 HD
ENDBRANCH   5  18
BRANCH   3  22
ATOM     22  C   LIG d   1      -9.128  71.200 117.351  0.00  0.00     0.382 C 
ATOM     23  O   LIG d   1      -8.616  70.612 116.368  0.00  0.00    -0.241 OA
ATOM     24  O   LIG d   1      -9.847  70.561 118.143  0.00  0.00    -0.241 OA
ENDBRANCH   3  22
TORSDOF 7
ENDMDL
MODEL 2
REMARK VINA RESULT:      -5.3     16.957     19.122
REMARK  7 active torsions:
REMARK  status: ('A' for Active; 'I' for Inactive)
REMARK    1  A    between atoms: C_2  and  C_3 
REMARK    2  A    between atoms: C_3  and  O_6 
REMARK    3  A    between atoms: C_3  and  C_4 
REMARK    4  A    between atoms: C_7  and  O_6 
REMARK    5  A    between atoms: C_9  and  C_10 
REMARK    6  A    between atoms: N_15  and  C_14 
REMARK    7  A    between atoms: N_20  and  C_19 
REMARK       I    between atoms: C_22  and  N_20 
ROOT
ATOM      1  C   LIG d   1      -0.047  57.678 117.710  0.00  0.00     0.161 C 
ATOM      2  C   LIG d   1      -1.024  58.657 117.956  0.00  0.00     0.016 C 
ATOM      3  C   LIG d   1      -2.411  58.385 117.972  0.00  0.00     0.038 C 
ATOM      4  C   LIG d   1      -2.911  57.077 117.890  0.00  0.00     0.028 C 
ATOM      5  C   LIG d   1      -1.991  56.122 117.136  0.00  0.00    -0.047 C 
ATOM      6  C   LIG d   1      -0.567  56.225 117.729  0.00  0.00     0.091 C 
ENDROOT
BRANCH   1   7
ATOM      7  O   LIG d   1       1.044  57.831 118.639  0.00  0.00    -0.368 OA
BRANCH   7   8
ATOM      8  C   LIG d   1       1.657  59.143 118.692  0.00  0.00     0.119 C 
BRANCH   8   9
ATOM      9  C   LIG d   1       2.999  59.058 117.941  0.00  0.00     0.028 C 
ATOM     10  C   LIG d   1       4.099  59.902 118.607  0.00  0.00     0.006 C 
ENDBRANCH   8   9
BRANCH   8  11
ATOM     11  C   LIG d   1       2.019  59.531 120.128  0.00  0.00     0.028 C 
ATOM     12  C   LIG d   1       0.787  59.678 121.035  0.00  0.00     0.006 C 
ENDBRANCH   8  11
ENDBRANCH   7   8
ENDBRANCH   1   7
BRANCH   6  13
ATOM     13  N   LIG d   1       0.415  55.386 116.994  0.00  0.00    -0.311 N 
ATOM     14  C   LIG d   1       1.042  54.345 117.539  0.00  0.00     0.210 C 
ATOM     15  C   LIG d   1       2.030  53.628 116.612  0.00  0.00     0.109 C 
ATOM     16  O   LIG d   1       0.852  53.928 118.691  0.00  0.00    -0.276 OA
ATOM     17  H   LIG d   1       0.606  55.635 116.043  0.00  0.00     0.149 HD
ENDBRANCH   6  13
BRANCH   5  18
ATOM     18  N   LIG d   1      -2.567  54.769 117.246  0.00  0.00     0.381 N 
ATOM     19  H   LIG d   1      -1.994  54.116 116.750  0.00  0.00    -0.090 HD
ATOM     20  H   LIG d   1      -3.480  54.769 116.827  0.00  0.00    -0.090 HD
ATOM     21  H   LIG d   1      -2.632  54.503 118.204  0.00  0.00    -0.090 HD
ENDBRANCH   5  18
BRANCH   3  22
ATOM     22  C   LIG d   1      -3.316  59.434 118.030  0.00  0.00     0.382 C 
ATOM     23  O   LIG d   1      -3.828  59.760 119.128  0.00  0.00    -0.241 OA
ATOM     24  O   LIG d   1      -3.661  60.028 116.991  0.00  0.00    -0.241 OA
ENDBRANCH   3  22
TORSDOF 7
ENDMDL
MODEL 3
REMARK VINA RESULT:      -5.3      2.401      5.103
REMARK  7 active torsions:
REMARK  status: ('A' for Active; 'I' for Inactive)
REMARK    1  A    between atoms: C_2  and  C_3 
REMARK    2  A    between atoms: C_3  and  O_6 
REMARK    3  A    between atoms: C_3  and  C_4 
REMARK    4  A    between atoms: C_7  and  O_6 
REMARK    5  A    between atoms: C_9  and  C_10 
REMARK    6  A    between atoms: N_15  and  C_14 
REMARK    7  A    between atoms: N_20  and  C_19 
REMARK       I    between atoms: C_22  and  N_20 
ROOT
ATOM      1  C   LIG d   1      -7.788  74.897 118.011  0.00  0.00     0.161 C 
ATOM      2  C   LIG d   1      -8.983  75.634 118.024  0.00  0.00     0.016 C 
ATOM      3  C   LIG d   1      -9.032  77.040 117.886  0.00  0.00     0.038 C 
ATOM      4  C   LIG d   1      -7.891  77.794 117.571  0.00  0.00     0.028 C 
ATOM      5  C   LIG d   1      -6.592  77.155 118.049  0.00  0.00    -0.047 C 
ATOM      6  C   LIG d   1      -6.544  75.690 117.558  0.00  0.00     0.091 C 
ENDROOT
BRANCH   1   7
ATOM      7  O   LIG d   1      -7.951  73.716 117.201  0.00  0.00    -0.368 OA
BRANCH   7   8
ATOM      8  C   LIG d   1      -8.095  72.466 117.920  0.00  0.00     0.119 C 
BRANCH   8   9
ATOM      9  C   LIG d   1      -7.186  71.429 117.231  0.00  0.00     0.028 C 
ATOM     10  C   LIG d   1      -6.972  71.734 115.739  0.00  0.00     0.006 C 
ENDBRANCH   8   9
BRANCH   8  11
ATOM     11  C   LIG d   1      -9.516  71.909 117.790  0.00  0.00     0.028 C 
ATOM     12  C   LIG d   1      -9.564  70.375 117.870  0.00  0.00     0.006 C 
ENDBRANCH   8  11
ENDBRANCH   7   8
ENDBRANCH   1   7
BRANCH   6  13
ATOM     13  N   LIG d   1      -5.344  74.966 118.053  0.00  0.00    -0.311 N 
ATOM     14  C   LIG d   1      -4.431  74.423 117.248  0.00  0.00     0.210 C 
ATOM     15  C   LIG d   1      -3.284  73.705 117.964  0.00  0.00     0.109 C 
ATOM     16  O   LIG d   1      -4.447  74.497 116.010  0.00  0.00    -0.276 OA
ATOM     17  H   LIG d   1      -5.236  74.886 119.045  0.00  0.00     0.149 HD
ENDBRANCH   6  13
BRANCH   5  18
ATOM     18  N   LIG d   1      -5.478  77.974 117.536  0.00  0.00     0.381 N 
ATOM     19  H   LIG d   1      -5.782  78.918 117.408  0.00  0.00    -0.090 HD
ATOM     20  H   LIG d   1      -5.191  77.611 116.644  0.00  0.00    -0.090 HD
ATOM     21  H   LIG d   1      -4.713  77.947 118.174  0.00  0.00    -0.090 HD
ENDBRANCH   5  18
BRANCH   3  22
ATOM     22  C   LIG d   1     -10.226  77.711 118.102  0.00  0.00     0.382 C 
ATOM     23  O   LIG d   1     -10.256  78.965 118.068  0.00  0.00    -0.241 OA
ATOM     24  O   LIG d   1     -11.265  77.080 118.374  0.00  0.00    -0.241 OA
ENDBRANCH   3  22
TORSDOF 7
ENDMDL
MODEL 4
REMARK VINA RESULT:      -5.0      2.469      4.224
REMARK  7 active torsions:
REMARK  status: ('A' for Active; 'I' for Inactive)
REMARK    1  A    between atoms: C_2  and  C_3 
REMARK    2  A    between atoms: C_3  and  O_6 
REMARK    3  A    between atoms: C_3  and  C_4 
REMARK    4  A    between atoms: C_7  and  O_6 
REMARK    5  A    between atoms: C_9  and  C_10 
REMARK    6  A    between atoms: N_15  and  C_14 
REMARK    7  A    between atoms: N_20  and  C_19 
REMARK       I    between atoms: C_22  and  N_20 
ROOT
ATOM      1  C   LIG d   1      -7.121  74.608 118.533  0.00  0.00     0.161 C 
ATOM      2  C   LIG d   1      -8.435  74.810 118.081  0.00  0.00     0.016 C 
ATOM      3  C   LIG d   1      -8.984  76.089 117.830  0.00  0.00     0.038 C 
ATOM      4  C   LIG d   1      -8.201  77.252 117.870  0.00  0.00     0.028 C 
ATOM      5  C   LIG d   1      -7.004  77.145 118.809  0.00  0.00    -0.047 C 
ATOM      6  C   LIG d   1      -6.217  75.857 118.475  0.00  0.00     0.091 C 
ENDROOT
BRANCH   1   7
ATOM      7  O   LIG d   1      -6.517  73.519 117.806  0.00  0.00    -0.368 OA
BRANCH   7   8
ATOM      8  C   LIG d   1      -6.917  73.377 116.421  0.00  0.00     0.119 C 
BRANCH   8   9
ATOM      9  C   LIG d   1      -7.190  71.881 116.169  0.00  0.00     0.028 C 
ATOM     10  C   LIG d   1      -8.665  71.508 116.394  0.00  0.00     0.006 C 
ENDBRANCH   8   9
BRANCH   8  11
ATOM     11  C   LIG d   1      -5.775  73.746 115.470  0.00  0.00     0.028 C 
ATOM     12  C   LIG d   1      -5.827  75.215 115.020  0.00  0.00     0.006 C 
ENDBRANCH   8  11
ENDBRANCH   7   8
ENDBRANCH   1   7
BRANCH   6  13
ATOM     13  N   LIG d   1      -5.078  75.632 119.402  0.00  0.00    -0.311 N 
ATOM     14  C   LIG d   1      -3.839  75.367 118.991  0.00  0.00     0.210 C 
ATOM     15  C   LIG d   1      -2.819  75.148 120.112  0.00  0.00     0.109 C 
ATOM     16  O   LIG d   1      -3.482  75.323 117.804  0.00  0.00    -0.276 OA
ATOM     17  H   LIG d   1      -5.272  75.680 120.383  0.00  0.00     0.149 HD
ENDBRANCH   6  13
BRANCH   5  18
ATOM     18  N   LIG d   1      -6.200  78.372 118.648  0.00  0.00     0.381 N 
ATOM     19  H   LIG d   1      -6.364  78.987 119.420  0.00  0.00    -0.090 HD
ATOM     20  H   LIG d   1      -6.486  78.839 117.806  0.00  0.00    -0.090 HD
ATOM     21  H   LIG d   1      -5.232  78.141 118.597  0.00  0.00    -0.090 HD
ENDBRANCH   5  18
BRANCH   3  22
ATOM     22  C   LIG d   1     -10.341  76.217 117.575  0.00  0.00     0.382 C 
ATOM     23  O   LIG d   1     -10.954  75.302 116.974  0.00  0.00    -0.241 OA
ATOM     24  O   LIG d   1     -10.949  77.254 117.898  0.00  0.00    -0.241 OA
ENDBRANCH   3  22
TORSDOF 7
ENDMDL
MODEL 5
REMARK VINA RESULT:      -4.9      2.723      5.649
REMARK  7 active torsions:
REMARK  status: ('A' for Active; 'I' for Inactive)
REMARK    1  A    between atoms: C_2  and  C_3 
REMARK    2  A    between atoms: C_3  and  O_6 
REMARK    3  A    between atoms: C_3  and  C_4 
REMARK    4  A    between atoms: C_7  and  O_6 
REMARK    5  A    between atoms: C_9  and  C_10 
REMARK    6  A    between atoms: N_15  and  C_14 
REMARK    7  A    between atoms: N_20  and  C_19 
REMARK       I    between atoms: C_22  and  N_20 
ROOT
ATOM      1  C   LIG d   1      -7.545  76.978 117.937  0.00  0.00     0.161 C 
ATOM      2  C   LIG d   1      -8.758  77.654 118.152  0.00  0.00     0.016 C 
ATOM      3  C   LIG d   1      -8.891  79.059 118.068  0.00  0.00     0.038 C 
ATOM      4  C   LIG d   1      -7.846  79.876 117.611  0.00  0.00     0.028 C 
ATOM      5  C   LIG d   1      -6.462  79.291 117.869  0.00  0.00    -0.047 C 
ATOM      6  C   LIG d   1      -6.421  77.843 117.330  0.00  0.00     0.091 C 
ENDROOT
BRANCH   1   7
ATOM      7  O   LIG d   1      -7.774  75.810 117.124  0.00  0.00    -0.368 OA
BRANCH   7   8
ATOM      8  C   LIG d   1      -8.072  74.585 117.837  0.00  0.00     0.119 C 
BRANCH   8   9
ATOM      9  C   LIG d   1      -7.121  73.496 117.304  0.00  0.00     0.028 C 
ATOM     10  C   LIG d   1      -6.155  74.033 116.234  0.00  0.00     0.006 C 
ENDBRANCH   8   9
BRANCH   8  11
ATOM     11  C   LIG d   1      -9.483  74.083 117.517  0.00  0.00     0.028 C 
ATOM     12  C   LIG d   1      -9.572  72.549 117.464  0.00  0.00     0.006 C 
ENDBRANCH   8  11
ENDBRANCH   7   8
ENDBRANCH   1   7
BRANCH   6  13
ATOM     13  N   LIG d   1      -5.129  77.167 117.617  0.00  0.00    -0.311 N 
ATOM     14  C   LIG d   1      -4.114  77.128 116.755  0.00  0.00     0.210 C 
ATOM     15  C   LIG d   1      -2.880  76.363 117.242  0.00  0.00     0.109 C 
ATOM     16  O   LIG d   1      -4.108  77.682 115.645  0.00  0.00    -0.276 OA
ATOM     17  H   LIG d   1      -5.036  76.718 118.507  0.00  0.00     0.149 HD
ENDBRANCH   6  13
BRANCH   5  18
ATOM     18  N   LIG d   1      -5.475  80.177 117.222  0.00  0.00     0.381 N 
ATOM     19  H   LIG d   1      -5.949  80.876 116.686  0.00  0.00    -0.090 HD
ATOM     20  H   LIG d   1      -4.908  79.631 116.598  0.00  0.00    -0.090 HD
ATOM     21  H   LIG d   1      -4.901  80.609 117.912  0.00  0.00    -0.090 HD
ENDBRANCH   5  18
BRANCH   3  22
ATOM     22  C   LIG d   1     -10.068  79.664 118.480  0.00  0.00     0.382 C 
ATOM     23  O   LIG d   1     -10.566  80.595 117.803  0.00  0.00    -0.241 OA
ATOM     24  O   LIG d   1     -10.615  79.320 119.545  0.00  0.00    -0.241 OA
ENDBRANCH   3  22
TORSDOF 7
ENDMDL
MODEL 6
REMARK VINA RESULT:      -4.9      2.176      4.102
REMARK  7 active torsions:
REMARK  status: ('A' for Active; 'I' for Inactive)
REMARK    1  A    between atoms: C_2  and  C_3 
REMARK    2  A    between atoms: C_3  and  O_6 
REMARK    3  A    between atoms: C_3  and  C_4 
REMARK    4  A    between atoms: C_7  and  O_6 
REMARK    5  A    between atoms: C_9  and  C_10 
REMARK    6  A    between atoms: N_15  and  C_14 
REMARK    7  A    between atoms: N_20  and  C_19 
REMARK       I    between atoms: C_22  and  N_20 
ROOT
ATOM      1  C   LIG d   1      -7.975  75.357 117.877  0.00  0.00     0.161 C 
ATOM      2  C   LIG d   1      -8.504  74.057 117.837  0.00  0.00     0.016 C 
ATOM      3  C   LIG d   1      -7.838  72.963 117.237  0.00  0.00     0.038 C 
ATOM      4  C   LIG d   1      -6.520  73.065 116.768  0.00  0.00     0.028 C 
ATOM      5  C   LIG d   1      -6.140  74.476 116.332  0.00  0.00    -0.047 C 
ATOM      6  C   LIG d   1      -6.490  75.464 117.469  0.00  0.00     0.091 C 
ENDROOT
BRANCH   1   7
ATOM      7  O   LIG d   1      -8.176  75.926 119.186  0.00  0.00    -0.368 OA
BRANCH   7   8
ATOM      8  C   LIG d   1      -9.186  76.960 119.283  0.00  0.00     0.119 C 
BRANCH   8   9
ATOM      9  C   LIG d   1      -9.910  77.029 117.925  0.00  0.00     0.028 C 
ATOM     10  C   LIG d   1     -11.335  76.453 117.990  0.00  0.00     0.006 C 
ENDBRANCH   8   9
BRANCH   8  11
ATOM     11  C   LIG d   1      -8.553  78.342 119.475  0.00  0.00     0.028 C 
ATOM     12  C   LIG d   1      -8.827  79.291 118.297  0.00  0.00     0.006 C 
ENDBRANCH   8  11
ENDBRANCH   7   8
ENDBRANCH   1   7
BRANCH   6  13
ATOM     13  N   LIG d   1      -6.228  76.877 117.092  0.00  0.00    -0.311 N 
ATOM     14  C   LIG d   1      -5.366  77.660 117.739  0.00  0.00     0.210 C 
ATOM     15  C   LIG d   1      -5.261  79.090 117.200  0.00  0.00     0.109 C 
ATOM     16  O   LIG d   1      -4.654  77.296 118.687  0.00  0.00    -0.276 OA
ATOM     17  H   LIG d   1      -6.740  77.245 116.314  0.00  0.00     0.149 HD
ENDBRANCH   6  13
BRANCH   5  18
ATOM     18  N   LIG d   1      -4.703  74.467 115.997  0.00  0.00     0.381 N 
ATOM     19  H   LIG d   1      -4.181  74.080 116.756  0.00  0.00    -0.090 HD
ATOM     20  H   LIG d   1      -4.397  75.414 115.853  0.00  0.00    -0.090 HD
ATOM     21  H   LIG d   1      -4.550  73.932 115.171  0.00  0.00    -0.090 HD
ENDBRANCH   5  18
BRANCH   3  22
ATOM     22  C   LIG d   1      -8.507  71.761 117.067  0.00  0.00     0.382 C 
ATOM     23  O   LIG d   1      -8.316  71.078 116.032  0.00  0.00    -0.241 OA
ATOM     24  O   LIG d   1      -9.332  71.371 117.915  0.00  0.00    -0.241 OA
ENDBRANCH   3  22
TORSDOF 7
ENDMDL
MODEL 7
REMARK VINA RESULT:      -4.8      2.401      4.936
REMARK  7 active torsions:
REMARK  status: ('A' for Active; 'I' for Inactive)
REMARK    1  A    between atoms: C_2  and  C_3 
REMARK    2  A    between atoms: C_3  and  O_6 
REMARK    3  A    between atoms: C_3  and  C_4 
REMARK    4  A    between atoms: C_7  and  O_6 
REMARK    5  A    between atoms: C_9  and  C_10 
REMARK    6  A    between atoms: N_15  and  C_14 
REMARK    7  A    between atoms: N_20  and  C_19 
REMARK       I    between atoms: C_22  and  N_20 
ROOT
ATOM      1  C   LIG d   1      -7.523  75.905 117.155  0.00  0.00     0.161 C 
ATOM      2  C   LIG d   1      -6.766  75.391 116.089  0.00  0.00     0.016 C 
ATOM      3  C   LIG d   1      -5.561  75.975 115.637  0.00  0.00     0.038 C 
ATOM      4  C   LIG d   1      -4.947  77.034 116.323  0.00  0.00     0.028 C 
ATOM      5  C   LIG d   1      -5.931  77.903 117.100  0.00  0.00    -0.047 C 
ATOM      6  C   LIG d   1      -6.812  76.993 117.986  0.00  0.00     0.091 C 
ENDROOT
BRANCH   1   7
ATOM      7  O   LIG d   1      -7.959  74.828 118.008  0.00  0.00    -0.368 OA
BRANCH   7   8
ATOM      8  C   LIG d   1      -9.386  74.580 118.041  0.00  0.00     0.119 C 
BRANCH   8   9
ATOM      9  C   LIG d   1      -9.633  73.210 117.378  0.00  0.00     0.028 C 
ATOM     10  C   LIG d   1      -8.695  72.119 117.919  0.00  0.00     0.006 C 
ENDBRANCH   8   9
BRANCH   8  11
ATOM     11  C   LIG d   1     -10.148  75.591 117.179  0.00  0.00     0.028 C 
ATOM     12  C   LIG d   1     -11.155  76.424 117.987  0.00  0.00     0.006 C 
ENDBRANCH   8  11
ENDBRANCH   7   8
ENDBRANCH   1   7
BRANCH   6  13
ATOM     13  N   LIG d   1      -7.858  77.756 118.717  0.00  0.00    -0.311 N 
ATOM     14  C   LIG d   1      -8.123  77.582 120.010  0.00  0.00     0.210 C 
ATOM     15  C   LIG d   1      -9.254  78.455 120.562  0.00  0.00     0.109 C 
ATOM     16  O   LIG d   1      -7.507  76.810 120.761  0.00  0.00    -0.276 OA
ATOM     17  H   LIG d   1      -8.385  78.425 118.191  0.00  0.00     0.149 HD
ENDBRANCH   6  13
BRANCH   5  18
ATOM     18  N   LIG d   1      -5.145  78.881 117.876  0.00  0.00     0.381 N 
ATOM     19  H   LIG d   1      -4.173  78.777 117.665  0.00  0.00    -0.090 HD
ATOM     20  H   LIG d   1      -5.276  78.699 118.855  0.00  0.00    -0.090 HD
ATOM     21  H   LIG d   1      -5.443  79.806 117.660  0.00  0.00    -0.090 HD
ENDBRANCH   5  18
BRANCH   3  22
ATOM     22  C   LIG d   1      -4.977  75.525 114.462  0.00  0.00     0.382 C 
ATOM     23  O   LIG d   1      -4.580  76.350 113.604  0.00  0.00    -0.241 OA
ATOM     24  O   LIG d   1      -4.882  74.305 114.231  0.00  0.00    -0.241 OA
ENDBRANCH   3  22
TORSDOF 7
ENDMDL
MODEL 8
REMARK VINA RESULT:      -4.7      3.530      5.268
REMARK  7 active torsions:
REMARK  status: ('A' for Active; 'I' for Inactive)
REMARK    1  A    between atoms: C_2  and  C_3 
REMARK    2  A    between atoms: C_3  and  O_6 
REMARK    3  A    between atoms: C_3  and  C_4 
REMARK    4  A    between atoms: C_7  and  O_6 
REMARK    5  A    between atoms: C_9  and  C_10 
REMARK    6  A    between atoms: N_15  and  C_14 
REMARK    7  A    between atoms: N_20  and  C_19 
REMARK       I    between atoms: C_22  and  N_20 
ROOT
ATOM      1  C   LIG d   1      -3.795  74.382 117.349  0.00  0.00     0.161 C 
ATOM      2  C   LIG d   1      -4.948  73.647 117.669  0.00  0.00     0.016 C 
ATOM      3  C   LIG d   1      -6.095  73.602 116.843  0.00  0.00     0.038 C 
ATOM      4  C   LIG d   1      -6.109  74.170 115.561  0.00  0.00     0.028 C 
ATOM      5  C   LIG d   1      -5.150  75.346 115.410  0.00  0.00    -0.047 C 
ATOM      6  C   LIG d   1      -3.749  74.918 115.903  0.00  0.00     0.091 C 
ENDROOT
BRANCH   1   7
ATOM      7  O   LIG d   1      -2.621  73.594 117.629  0.00  0.00    -0.368 OA
BRANCH   7   8
ATOM      8  C   LIG d   1      -1.634  74.205 118.496  0.00  0.00     0.119 C 
BRANCH   8   9
ATOM      9  C   LIG d   1      -0.310  73.441 118.302  0.00  0.00     0.028 C 
ATOM     10  C   LIG d   1       0.887  74.385 118.098  0.00  0.00     0.006 C 
ENDBRANCH   8   9
BRANCH   8  11
ATOM     11  C   LIG d   1      -1.998  74.017 119.972  0.00  0.00     0.028 C 
ATOM     12  C   LIG d   1      -1.579  72.642 120.519  0.00  0.00     0.006 C 
ENDBRANCH   8  11
ENDBRANCH   7   8
ENDBRANCH   1   7
BRANCH   6  13
ATOM     13  N   LIG d   1      -2.770  76.035 115.868  0.00  0.00    -0.311 N 
ATOM     14  C   LIG d   1      -1.537  75.915 115.379  0.00  0.00     0.210 C 
ATOM     15  C   LIG d   1      -0.683  77.184 115.458  0.00  0.00     0.109 C 
ATOM     16  O   LIG d   1      -1.080  74.886 114.859  0.00  0.00    -0.276 OA
ATOM     17  H   LIG d   1      -3.068  76.915 116.242  0.00  0.00     0.149 HD
ENDBRANCH   6  13
BRANCH   5  18
ATOM     18  N   LIG d   1      -5.164  75.753 113.992  0.00  0.00     0.381 N 
ATOM     19  H   LIG d   1      -5.267  74.947 113.409  0.00  0.00    -0.090 HD
ATOM     20  H   LIG d   1      -4.287  76.192 113.771  0.00  0.00    -0.090 HD
ATOM     21  H   LIG d   1      -5.913  76.390 113.827  0.00  0.00    -0.090 HD
ENDBRANCH   5  18
BRANCH   3  22
ATOM     22  C   LIG d   1      -7.260  73.015 117.316  0.00  0.00     0.382 C 
ATOM     23  O   LIG d   1      -8.243  73.732 117.621  0.00  0.00    -0.241 OA
ATOM     24  O   LIG d   1      -7.323  71.783 117.483  0.00  0.00    -0.241 OA
ENDBRANCH   3  22
TORSDOF 7
ENDMDL
MODEL 9
REMARK VINA RESULT:      -4.5     14.392     17.477
REMARK  7 active torsions:
REMARK  status: ('A' for Active; 'I' for Inactive)
REMARK    1  A    between atoms: C_2  and  C_3 
REMARK    2  A    between atoms: C_3  and  O_6 
REMARK    3  A    between atoms: C_3  and  C_4 
REMARK    4  A    between atoms: C_7  and  O_6 
REMARK    5  A    between atoms: C_9  and  C_10 
REMARK    6  A    between atoms: N_15  and  C_14 
REMARK    7  A    between atoms: N_20  and  C_19 
REMARK       I    between atoms: C_22  and  N_20 
ROOT
ATOM      1  C   LIG d   1       2.707  87.006 116.850  0.00  0.00     0.161 C 
ATOM      2  C   LIG d   1       1.965  88.196 116.766  0.00  0.00     0.016 C 
ATOM      3  C   LIG d   1       2.448  89.371 116.145  0.00  0.00     0.038 C 
ATOM      4  C   LIG d   1       3.653  89.389 115.428  0.00  0.00     0.028 C 
ATOM      5  C   LIG d   1       4.664  88.357 115.916  0.00  0.00    -0.047 C 
ATOM      6  C   LIG d   1       3.978  86.973 115.976  0.00  0.00     0.091 C 
ENDROOT
BRANCH   1   7
ATOM      7  O   LIG d   1       1.860  85.880 116.545  0.00  0.00    -0.368 OA
BRANCH   7   8
ATOM      8  C   LIG d   1       0.840  86.104 115.541  0.00  0.00     0.119 C 
BRANCH   8   9
ATOM      9  C   LIG d   1      -0.451  85.419 116.031  0.00  0.00     0.028 C 
ATOM     10  C   LIG d   1      -1.629  85.629 115.065  0.00  0.00     0.006 C 
ENDBRANCH   8   9
BRANCH   8  11
ATOM     11  C   LIG d   1       1.193  85.408 114.223  0.00  0.00     0.028 C 
ATOM     12  C   LIG d   1       1.672  86.389 113.141  0.00  0.00     0.006 C 
ENDBRANCH   8  11
ENDBRANCH   7   8
ENDBRANCH   1   7
BRANCH   6  13
ATOM     13  N   LIG d   1       4.873  85.921 116.524  0.00  0.00    -0.311 N 
ATOM     14  C   LIG d   1       5.092  84.755 115.917  0.00  0.00     0.210 C 
ATOM     15  C   LIG d   1       6.034  83.805 116.662  0.00  0.00     0.109 C 
ATOM     16  O   LIG d   1       4.621  84.432 114.816  0.00  0.00    -0.276 OA
ATOM     17  H   LIG d   1       5.321  86.113 117.399  0.00  0.00     0.149 HD
ENDBRANCH   6  13
BRANCH   5  18
ATOM     18  N   LIG d   1       5.816  88.392 114.995  0.00  0.00     0.381 N 
ATOM     19  H   LIG d   1       5.497  88.309 114.050  0.00  0.00    -0.090 HD
ATOM     20  H   LIG d   1       6.415  87.610 115.195  0.00  0.00    -0.090 HD
ATOM     21  H   LIG d   1       6.319  89.244 115.110  0.00  0.00    -0.090 HD
ENDBRANCH   5  18
BRANCH   3  22
ATOM     22  C   LIG d   1       1.739  90.556 116.272  0.00  0.00     0.382 C 
ATOM     23  O   LIG d   1       0.486  90.546 116.219  0.00  0.00    -0.241 OA
ATOM     24  O   LIG d   1       2.339  91.641 116.395  0.00  0.00    -0.241 OA
ENDBRANCH   3  22
TORSDOF 7
ENDMDL
