MODEL 1
REMARK VINA RESULT:      -5.8      0.000      0.000
REMARK  7 active torsions:
REMARK  status: ('A' for Active; 'I' for Inactive)
REMARK    1  A    between atoms: C_2  and  C_3 
REMARK    2  A    between atoms: C_3  and  O_6 
REMARK    3  A    between atoms: C_3  and  C_4 
REMARK    4  A    between atoms: C_7  and  O_6 
REMARK    5  A    between atoms: C_9  and  C_10 
REMARK    6  A    between atoms: N_15  and  C_14 
REMARK    7  A    between atoms: N_20  and  C_19 
REMARK       I    between atoms: C_22  and  N_20 
ROOT
ATOM      1  C   LIG d   1      -7.262  75.959 117.359  0.00  0.00     0.161 C 
ATOM      2  C   LIG d   1      -8.577  76.213 117.784  0.00  0.00     0.016 C 
ATOM      3  C   LIG d   1      -9.011  77.471 118.264  0.00  0.00     0.038 C 
ATOM      4  C   LIG d   1      -8.191  78.608 118.209  0.00  0.00     0.028 C 
ATOM      5  C   LIG d   1      -6.702  78.284 118.259  0.00  0.00    -0.047 C 
ATOM      6  C   LIG d   1      -6.384  77.216 117.188  0.00  0.00     0.091 C 
ENDROOT
BRANCH   1   7
ATOM      7  O   LIG d   1      -7.283  75.192 116.140  0.00  0.00    -0.368 OA
BRANCH   7   8
ATOM      8  C   LIG d   1      -6.687  73.873 116.206  0.00  0.00     0.119 C 
BRANCH   8   9
ATOM      9  C   LIG d   1      -5.814  73.696 114.948  0.00  0.00     0.028 C 
ATOM     10  C   LIG d   1      -5.693  74.993 114.130  0.00  0.00     0.006 C 
ENDBRANCH   8   9
BRANCH   8  11
ATOM     11  C   LIG d   1      -7.751  72.775 116.119  0.00  0.00     0.028 C 
ATOM     12  C   LIG d   1      -7.196  71.381 116.450  0.00  0.00     0.006 C 
ENDBRANCH   8  11
ENDBRANCH   7   8
ENDBRANCH   1   7
BRANCH   6  13
ATOM     13  N   LIG d   1      -4.964  76.781 117.225  0.00  0.00    -0.311 N 
ATOM     14  C   LIG d   1      -4.009  77.329 116.475  0.00  0.00     0.210 C 
ATOM     15  C   LIG d   1      -2.616  76.717 116.654  0.00  0.00     0.109 C 
ATOM     16  O   LIG d   1      -4.177  78.284 115.703  0.00  0.00    -0.276 OA
ATOM     17  H   LIG d   1      -4.732  76.032 117.848  0.00  0.00     0.149 HD
ENDBRANCH   6  13
BRANCH   5  18
ATOM     18  N   LIG d   1      -5.965  79.546 118.055  0.00  0.00     0.381 N 
ATOM     19  H   LIG d   1      -6.302  80.005 117.233  0.00  0.00    -0.090 HD
ATOM     20  H   LIG d   1      -4.991  79.335 117.922  0.00  0.00    -0.090 HD
ATOM     21  H   LIG d   1      -6.079  80.139 118.847  0.00  0.00    -0.090 HD
ENDBRANCH   5  18
BRANCH   3  22
ATOM     22  C   LIG d   1     -10.265  77.590 118.844  0.00  0.00     0.382 C 
ATOM     23  O   LIG d   1     -10.502  78.533 119.636  0.00  0.00    -0.241 OA
ATOM     24  O   LIG d   1     -11.148  76.741 118.618  0.00  0.00    -0.241 OA
ENDBRANCH   3  22
TORSDOF 7
ENDMDL
MODEL 2
REMARK VINA RESULT:      -5.6      1.904      5.076
REMARK  7 active torsions:
REMARK  status: ('A' for Active; 'I' for Inactive)
REMARK    1  A    between atoms: C_2  and  C_3 
REMARK    2  A    between atoms: C_3  and  O_6 
REMARK    3  A    between atoms: C_3  and  C_4 
REMARK    4  A    between atoms: C_7  and  O_6 
REMARK    5  A    between atoms: C_9  and  C_10 
REMARK    6  A    between atoms: N_15  and  C_14 
REMARK    7  A    between atoms: N_20  and  C_19 
REMARK       I    between atoms: C_22  and  N_20 
ROOT
ATOM      1  C   LIG d   1      -6.558  76.121 115.792  0.00  0.00     0.161 C 
ATOM      2  C   LIG d   1      -5.349  75.720 115.200  0.00  0.00     0.016 C 
ATOM      3  C   LIG d   1      -4.083  75.934 115.793  0.00  0.00     0.038 C 
ATOM      4  C   LIG d   1      -3.951  76.430 117.099  0.00  0.00     0.028 C 
ATOM      5  C   LIG d   1      -5.116  77.313 117.532  0.00  0.00    -0.047 C 
ATOM      6  C   LIG d   1      -6.441  76.563 117.266  0.00  0.00     0.091 C 
ENDROOT
BRANCH   1   7
ATOM      7  O   LIG d   1      -7.537  75.072 115.661  0.00  0.00    -0.368 OA
BRANCH   7   8
ATOM      8  C   LIG d   1      -7.482  74.020 116.656  0.00  0.00     0.119 C 
BRANCH   8   9
ATOM      9  C   LIG d   1      -6.831  72.790 115.994  0.00  0.00     0.028 C 
ATOM     10  C   LIG d   1      -7.548  71.479 116.358  0.00  0.00     0.006 C 
ENDBRANCH   8   9
BRANCH   8  11
ATOM     11  C   LIG d   1      -8.887  73.565 117.063  0.00  0.00     0.028 C 
ATOM     12  C   LIG d   1      -9.911  74.711 117.054  0.00  0.00     0.006 C 
ENDBRANCH   8  11
ENDBRANCH   7   8
ENDBRANCH   1   7
BRANCH   6  13
ATOM     13  N   LIG d   1      -7.634  77.390 117.583  0.00  0.00    -0.311 N 
ATOM     14  C   LIG d   1      -8.238  77.381 118.771  0.00  0.00     0.210 C 
ATOM     15  C   LIG d   1      -9.463  78.293 118.880  0.00  0.00     0.109 C 
ATOM     16  O   LIG d   1      -7.856  76.728 119.753  0.00  0.00    -0.276 OA
ATOM     17  H   LIG d   1      -7.992  77.974 116.853  0.00  0.00     0.149 HD
ENDBRANCH   6  13
BRANCH   5  18
ATOM     18  N   LIG d   1      -4.916  77.648 118.955  0.00  0.00     0.381 N 
ATOM     19  H   LIG d   1      -4.586  78.589 119.039  0.00  0.00    -0.090 HD
ATOM     20  H   LIG d   1      -4.219  77.034 119.339  0.00  0.00    -0.090 HD
ATOM     21  H   LIG d   1      -5.772  77.543 119.453  0.00  0.00    -0.090 HD
ENDBRANCH   5  18
BRANCH   3  22
ATOM     22  C   LIG d   1      -2.931  75.686 115.063  0.00  0.00     0.382 C 
ATOM     23  O   LIG d   1      -1.940  75.151 115.617  0.00  0.00    -0.241 OA
ATOM     24  O   LIG d   1      -2.854  76.031 113.869  0.00  0.00    -0.241 OA
ENDBRANCH   3  22
TORSDOF 7
ENDMDL
MODEL 3
REMARK VINA RESULT:      -5.6      1.887      4.922
REMARK  7 active torsions:
REMARK  status: ('A' for Active; 'I' for Inactive)
REMARK    1  A    between atoms: C_2  and  C_3 
REMARK    2  A    between atoms: C_3  and  O_6 
REMARK    3  A    between atoms: C_3  and  C_4 
REMARK    4  A    between atoms: C_7  and  O_6 
REMARK    5  A    between atoms: C_9  and  C_10 
REMARK    6  A    between atoms: N_15  and  C_14 
REMARK    7  A    between atoms: N_20  and  C_19 
REMARK       I    between atoms: C_22  and  N_20 
ROOT
ATOM      1  C   LIG d   1      -6.604  76.114 116.502  0.00  0.00     0.161 C 
ATOM      2  C   LIG d   1      -5.555  75.885 115.596  0.00  0.00     0.016 C 
ATOM      3  C   LIG d   1      -4.403  76.702 115.518  0.00  0.00     0.038 C 
ATOM      4  C   LIG d   1      -4.151  77.720 116.449  0.00  0.00     0.028 C 
ATOM      5  C   LIG d   1      -5.418  78.307 117.062  0.00  0.00    -0.047 C 
ATOM      6  C   LIG d   1      -6.296  77.153 117.600  0.00  0.00     0.091 C 
ENDROOT
BRANCH   1   7
ATOM      7  O   LIG d   1      -7.018  74.866 117.094  0.00  0.00    -0.368 OA
BRANCH   7   8
ATOM      8  C   LIG d   1      -7.724  73.950 116.223  0.00  0.00     0.119 C 
BRANCH   8   9
ATOM      9  C   LIG d   1      -9.048  73.577 116.918  0.00  0.00     0.028 C 
ATOM     10  C   LIG d   1      -9.930  74.806 117.199  0.00  0.00     0.006 C 
ENDBRANCH   8   9
BRANCH   8  11
ATOM     11  C   LIG d   1      -6.963  72.631 116.066  0.00  0.00     0.028 C 
ATOM     12  C   LIG d   1      -7.793  71.409 116.492  0.00  0.00     0.006 C 
ENDBRANCH   8  11
ENDBRANCH   7   8
ENDBRANCH   1   7
BRANCH   6  13
ATOM     13  N   LIG d   1      -7.594  77.633 118.141  0.00  0.00    -0.311 N 
ATOM     14  C   LIG d   1      -8.038  77.327 119.359  0.00  0.00     0.210 C 
ATOM     15  C   LIG d   1      -9.411  77.910 119.712  0.00  0.00     0.109 C 
ATOM     16  O   LIG d   1      -7.412  76.656 120.193  0.00  0.00    -0.276 OA
ATOM     17  H   LIG d   1      -8.153  78.210 117.543  0.00  0.00     0.149 HD
ENDBRANCH   6  13
BRANCH   5  18
ATOM     18  N   LIG d   1      -5.007  79.257 118.113  0.00  0.00     0.381 N 
ATOM     19  H   LIG d   1      -5.366  78.960 118.998  0.00  0.00    -0.090 HD
ATOM     20  H   LIG d   1      -5.393  80.161 117.903  0.00  0.00    -0.090 HD
ATOM     21  H   LIG d   1      -4.013  79.313 118.151  0.00  0.00    -0.090 HD
ENDBRANCH   5  18
BRANCH   3  22
ATOM     22  C   LIG d   1      -3.507  76.528 114.474  0.00  0.00     0.382 C 
ATOM     23  O   LIG d   1      -2.712  75.558 114.485  0.00  0.00    -0.241 OA
ATOM     24  O   LIG d   1      -3.454  77.354 113.543  0.00  0.00    -0.241 OA
ENDBRANCH   3  22
TORSDOF 7
ENDMDL
MODEL 4
REMARK VINA RESULT:      -5.2      2.048      4.736
REMARK  7 active torsions:
REMARK  status: ('A' for Active; 'I' for Inactive)
REMARK    1  A    between atoms: C_2  and  C_3 
REMARK    2  A    between atoms: C_3  and  O_6 
REMARK    3  A    between atoms: C_3  and  C_4 
REMARK    4  A    between atoms: C_7  and  O_6 
REMARK    5  A    between atoms: C_9  and  C_10 
REMARK    6  A    between atoms: N_15  and  C_14 
REMARK    7  A    between atoms: N_20  and  C_19 
REMARK       I    between atoms: C_22  and  N_20 
ROOT
ATOM      1  C   LIG d   1      -5.807  75.893 116.463  0.00  0.00     0.161 C 
ATOM      2  C   LIG d   1      -6.228  74.614 116.063  0.00  0.00     0.016 C 
ATOM      3  C   LIG d   1      -7.479  74.059 116.419  0.00  0.00     0.038 C 
ATOM      4  C   LIG d   1      -8.462  74.811 117.080  0.00  0.00     0.028 C 
ATOM      5  C   LIG d   1      -7.890  75.932 117.942  0.00  0.00    -0.047 C 
ATOM      6  C   LIG d   1      -6.910  76.770 117.090  0.00  0.00     0.091 C 
ENDROOT
BRANCH   1   7
ATOM      7  O   LIG d   1      -5.195  76.576 115.351  0.00  0.00    -0.368 OA
BRANCH   7   8
ATOM      8  C   LIG d   1      -3.756  76.447 115.238  0.00  0.00     0.119 C 
BRANCH   8   9
ATOM      9  C   LIG d   1      -3.213  76.076 116.632  0.00  0.00     0.028 C 
ATOM     10  C   LIG d   1      -2.218  74.904 116.582  0.00  0.00     0.006 C 
ENDBRANCH   8   9
BRANCH   8  11
ATOM     11  C   LIG d   1      -3.102  77.787 114.891  0.00  0.00     0.028 C 
ATOM     12  C   LIG d   1      -3.399  78.882 115.928  0.00  0.00     0.006 C 
ENDBRANCH   8  11
ENDBRANCH   7   8
ENDBRANCH   1   7
BRANCH   6  13
ATOM     13  N   LIG d   1      -6.242  77.837 117.881  0.00  0.00    -0.311 N 
ATOM     14  C   LIG d   1      -6.756  79.053 118.054  0.00  0.00     0.210 C 
ATOM     15  C   LIG d   1      -5.895  80.007 118.886  0.00  0.00     0.109 C 
ATOM     16  O   LIG d   1      -7.860  79.422 117.624  0.00  0.00    -0.276 OA
ATOM     17  H   LIG d   1      -5.356  77.613 118.291  0.00  0.00     0.149 HD
ENDBRANCH   6  13
BRANCH   5  18
ATOM     18  N   LIG d   1      -9.025  76.718 118.461  0.00  0.00     0.381 N 
ATOM     19  H   LIG d   1      -9.040  77.619 118.025  0.00  0.00    -0.090 HD
ATOM     20  H   LIG d   1      -8.905  76.849 119.450  0.00  0.00    -0.090 HD
ATOM     21  H   LIG d   1      -9.881  76.241 118.282  0.00  0.00    -0.090 HD
ENDBRANCH   5  18
BRANCH   3  22
ATOM     22  C   LIG d   1      -7.741  72.725 116.150  0.00  0.00     0.382 C 
ATOM     23  O   LIG d   1      -8.858  72.233 116.444  0.00  0.00    -0.241 OA
ATOM     24  O   LIG d   1      -6.860  71.995 115.657  0.00  0.00    -0.241 OA
ENDBRANCH   3  22
TORSDOF 7
ENDMDL
MODEL 5
REMARK VINA RESULT:      -5.2      2.399      6.178
REMARK  7 active torsions:
REMARK  status: ('A' for Active; 'I' for Inactive)
REMARK    1  A    between atoms: C_2  and  C_3 
REMARK    2  A    between atoms: C_3  and  O_6 
REMARK    3  A    between atoms: C_3  and  C_4 
REMARK    4  A    between atoms: C_7  and  O_6 
REMARK    5  A    between atoms: C_9  and  C_10 
REMARK    6  A    between atoms: N_15  and  C_14 
REMARK    7  A    between atoms: N_20  and  C_19 
REMARK       I    between atoms: C_22  and  N_20 
ROOT
ATOM      1  C   LIG d   1      -6.995  77.397 117.582  0.00  0.00     0.161 C 
ATOM      2  C   LIG d   1      -6.236  76.784 116.572  0.00  0.00     0.016 C 
ATOM      3  C   LIG d   1      -6.668  75.643 115.857  0.00  0.00     0.038 C 
ATOM      4  C   LIG d   1      -7.964  75.126 116.001  0.00  0.00     0.028 C 
ATOM      5  C   LIG d   1      -8.579  75.404 117.368  0.00  0.00    -0.047 C 
ATOM      6  C   LIG d   1      -8.457  76.914 117.675  0.00  0.00     0.091 C 
ENDROOT
BRANCH   1   7
ATOM      7  O   LIG d   1      -6.950  78.829 117.426  0.00  0.00    -0.368 OA
BRANCH   7   8
ATOM      8  C   LIG d   1      -6.122  79.548 118.373  0.00  0.00     0.119 C 
BRANCH   8   9
ATOM      9  C   LIG d   1      -6.953  80.728 118.913  0.00  0.00     0.028 C 
ATOM     10  C   LIG d   1      -7.738  81.448 117.804  0.00  0.00     0.006 C 
ENDBRANCH   8   9
BRANCH   8  11
ATOM     11  C   LIG d   1      -4.912  80.186 117.684  0.00  0.00     0.028 C 
ATOM     12  C   LIG d   1      -3.653  79.309 117.758  0.00  0.00     0.006 C 
ENDBRANCH   8  11
ENDBRANCH   7   8
ENDBRANCH   1   7
BRANCH   6  13
ATOM     13  N   LIG d   1      -8.959  77.258 119.031  0.00  0.00    -0.311 N 
ATOM     14  C   LIG d   1      -9.793  78.269 119.269  0.00  0.00     0.210 C 
ATOM     15  C   LIG d   1     -10.171  78.464 120.741  0.00  0.00     0.109 C 
ATOM     16  O   LIG d   1     -10.281  79.004 118.397  0.00  0.00    -0.276 OA
ATOM     17  H   LIG d   1      -8.638  76.694 119.793  0.00  0.00     0.149 HD
ENDBRANCH   6  13
BRANCH   5  18
ATOM     18  N   LIG d   1      -9.976  74.931 117.333  0.00  0.00     0.381 N 
ATOM     19  H   LIG d   1     -10.008  73.991 116.992  0.00  0.00    -0.090 HD
ATOM     20  H   LIG d   1     -10.500  75.513 116.702  0.00  0.00    -0.090 HD
ATOM     21  H   LIG d   1     -10.374  74.975 118.245  0.00  0.00    -0.090 HD
ENDBRANCH   5  18
BRANCH   3  22
ATOM     22  C   LIG d   1      -5.785  74.984 115.015  0.00  0.00     0.382 C 
ATOM     23  O   LIG d   1      -4.967  74.158 115.487  0.00  0.00    -0.241 OA
ATOM     24  O   LIG d   1      -5.767  75.238 113.796  0.00  0.00    -0.241 OA
ENDBRANCH   3  22
TORSDOF 7
ENDMDL
MODEL 6
REMARK VINA RESULT:      -5.0      1.953      2.550
REMARK  7 active torsions:
REMARK  status: ('A' for Active; 'I' for Inactive)
REMARK    1  A    between atoms: C_2  and  C_3 
REMARK    2  A    between atoms: C_3  and  O_6 
REMARK    3  A    between atoms: C_3  and  C_4 
REMARK    4  A    between atoms: C_7  and  O_6 
REMARK    5  A    between atoms: C_9  and  C_10 
REMARK    6  A    between atoms: N_15  and  C_14 
REMARK    7  A    between atoms: N_20  and  C_19 
REMARK       I    between atoms: C_22  and  N_20 
ROOT
ATOM      1  C   LIG d   1      -6.973  77.811 117.799  0.00  0.00     0.161 C 
ATOM      2  C   LIG d   1      -8.227  77.230 118.049  0.00  0.00     0.016 C 
ATOM      3  C   LIG d   1      -9.303  77.927 118.645  0.00  0.00     0.038 C 
ATOM      4  C   LIG d   1      -9.246  79.306 118.895  0.00  0.00     0.028 C 
ATOM      5  C   LIG d   1      -7.829  79.821 119.125  0.00  0.00    -0.047 C 
ATOM      6  C   LIG d   1      -6.927  79.345 117.963  0.00  0.00     0.091 C 
ENDROOT
BRANCH   1   7
ATOM      7  O   LIG d   1      -6.512  77.434 116.487  0.00  0.00    -0.368 OA
BRANCH   7   8
ATOM      8  C   LIG d   1      -6.036  76.073 116.345  0.00  0.00     0.119 C 
BRANCH   8   9
ATOM      9  C   LIG d   1      -4.703  76.126 115.575  0.00  0.00     0.028 C 
ATOM     10  C   LIG d   1      -3.581  75.355 116.290  0.00  0.00     0.006 C 
ENDBRANCH   8   9
BRANCH   8  11
ATOM     11  C   LIG d   1      -6.978  75.242 115.469  0.00  0.00     0.028 C 
ATOM     12  C   LIG d   1      -7.077  73.777 115.924  0.00  0.00     0.006 C 
ENDBRANCH   8  11
ENDBRANCH   7   8
ENDBRANCH   1   7
BRANCH   6  13
ATOM     13  N   LIG d   1      -5.506  79.735 118.153  0.00  0.00    -0.311 N 
ATOM     14  C   LIG d   1      -4.979  80.853 117.657  0.00  0.00     0.210 C 
ATOM     15  C   LIG d   1      -3.490  81.053 117.952  0.00  0.00     0.109 C 
ATOM     16  O   LIG d   1      -5.613  81.713 117.027  0.00  0.00    -0.276 OA
ATOM     17  H   LIG d   1      -4.927  79.109 118.679  0.00  0.00     0.149 HD
ENDBRANCH   6  13
BRANCH   5  18
ATOM     18  N   LIG d   1      -7.902  81.290 119.236  0.00  0.00     0.381 N 
ATOM     19  H   LIG d   1      -8.662  81.548 119.833  0.00  0.00    -0.090 HD
ATOM     20  H   LIG d   1      -8.072  81.677 118.324  0.00  0.00    -0.090 HD
ATOM     21  H   LIG d   1      -7.047  81.647 119.602  0.00  0.00    -0.090 HD
ENDBRANCH   5  18
BRANCH   3  22
ATOM     22  C   LIG d   1     -10.440  77.234 119.033  0.00  0.00     0.382 C 
ATOM     23  O   LIG d   1     -10.891  77.371 120.196  0.00  0.00    -0.241 OA
ATOM     24  O   LIG d   1     -10.994  76.439 118.250  0.00  0.00    -0.241 OA
ENDBRANCH   3  22
TORSDOF 7
ENDMDL
MODEL 7
REMARK VINA RESULT:      -5.0      2.144      4.235
REMARK  7 active torsions:
REMARK  status: ('A' for Active; 'I' for Inactive)
REMARK    1  A    between atoms: C_2  and  C_3 
REMARK    2  A    between atoms: C_3  and  O_6 
REMARK    3  A    between atoms: C_3  and  C_4 
REMARK    4  A    between atoms: C_7  and  O_6 
REMARK    5  A    between atoms: C_9  and  C_10 
REMARK    6  A    between atoms: N_15  and  C_14 
REMARK    7  A    between atoms: N_20  and  C_19 
REMARK       I    between atoms: C_22  and  N_20 
ROOT
ATOM      1  C   LIG d   1      -6.640  76.243 116.941  0.00  0.00     0.161 C 
ATOM      2  C   LIG d   1      -7.316  77.331 117.518  0.00  0.00     0.016 C 
ATOM      3  C   LIG d   1      -8.670  77.280 117.922  0.00  0.00     0.038 C 
ATOM      4  C   LIG d   1      -9.402  76.083 117.914  0.00  0.00     0.028 C 
ATOM      5  C   LIG d   1      -8.915  75.083 116.871  0.00  0.00    -0.047 C 
ATOM      6  C   LIG d   1      -7.389  74.897 117.027  0.00  0.00     0.091 C 
ENDROOT
BRANCH   1   7
ATOM      7  O   LIG d   1      -5.325  76.123 117.519  0.00  0.00    -0.368 OA
BRANCH   7   8
ATOM      8  C   LIG d   1      -4.218  76.512 116.670  0.00  0.00     0.119 C 
BRANCH   8   9
ATOM      9  C   LIG d   1      -3.905  77.992 116.964  0.00  0.00     0.028 C 
ATOM     10  C   LIG d   1      -3.550  78.234 118.440  0.00  0.00     0.006 C 
ENDBRANCH   8   9
BRANCH   8  11
ATOM     11  C   LIG d   1      -4.608  76.466 115.189  0.00  0.00     0.028 C 
ATOM     12  C   LIG d   1      -3.890  75.348 114.418  0.00  0.00     0.006 C 
ENDBRANCH   8  11
ENDBRANCH   7   8
ENDBRANCH   1   7
BRANCH   6  13
ATOM     13  N   LIG d   1      -6.818  73.998 115.990  0.00  0.00    -0.311 N 
ATOM     14  C   LIG d   1      -6.743  72.675 116.128  0.00  0.00     0.210 C 
ATOM     15  C   LIG d   1      -6.101  71.938 114.948  0.00  0.00     0.109 C 
ATOM     16  O   LIG d   1      -7.177  72.040 117.100  0.00  0.00    -0.276 OA
ATOM     17  H   LIG d   1      -6.471  74.427 115.155  0.00  0.00     0.149 HD
ENDBRANCH   6  13
BRANCH   5  18
ATOM     18  N   LIG d   1      -9.673  73.832 117.065  0.00  0.00     0.381 N 
ATOM     19  H   LIG d   1     -10.655  74.022 117.032  0.00  0.00    -0.090 HD
ATOM     20  H   LIG d   1      -9.455  73.458 117.972  0.00  0.00    -0.090 HD
ATOM     21  H   LIG d   1      -9.430  73.173 116.359  0.00  0.00    -0.090 HD
ENDBRANCH   5  18
BRANCH   3  22
ATOM     22  C   LIG d   1      -9.318  78.446 118.302  0.00  0.00     0.382 C 
ATOM     23  O   LIG d   1      -8.721  79.547 118.231  0.00  0.00    -0.241 OA
ATOM     24  O   LIG d   1     -10.477  78.404 118.757  0.00  0.00    -0.241 OA
ENDBRANCH   3  22
TORSDOF 7
ENDMDL
MODEL 8
REMARK VINA RESULT:      -4.9      2.373      5.131
REMARK  7 active torsions:
REMARK  status: ('A' for Active; 'I' for Inactive)
REMARK    1  A    between atoms: C_2  and  C_3 
REMARK    2  A    between atoms: C_3  and  O_6 
REMARK    3  A    between atoms: C_3  and  C_4 
REMARK    4  A    between atoms: C_7  and  O_6 
REMARK    5  A    between atoms: C_9  and  C_10 
REMARK    6  A    between atoms: N_15  and  C_14 
REMARK    7  A    between atoms: N_20  and  C_19 
REMARK       I    between atoms: C_22  and  N_20 
ROOT
ATOM      1  C   LIG d   1      -6.444  75.633 116.589  0.00  0.00     0.161 C 
ATOM      2  C   LIG d   1      -6.286  74.298 116.182  0.00  0.00     0.016 C 
ATOM      3  C   LIG d   1      -7.329  73.344 116.220  0.00  0.00     0.038 C 
ATOM      4  C   LIG d   1      -8.650  73.702 116.527  0.00  0.00     0.028 C 
ATOM      5  C   LIG d   1      -8.751  74.928 117.429  0.00  0.00    -0.047 C 
ATOM      6  C   LIG d   1      -7.906  76.070 116.822  0.00  0.00     0.091 C 
ENDROOT
BRANCH   1   7
ATOM      7  O   LIG d   1      -5.803  76.512 115.643  0.00  0.00    -0.368 OA
BRANCH   7   8
ATOM      8  C   LIG d   1      -4.722  77.326 116.159  0.00  0.00     0.119 C 
BRANCH   8   9
ATOM      9  C   LIG d   1      -3.555  77.236 115.158  0.00  0.00     0.028 C 
ATOM     10  C   LIG d   1      -3.666  76.010 114.236  0.00  0.00     0.006 C 
ENDBRANCH   8   9
BRANCH   8  11
ATOM     11  C   LIG d   1      -4.175  76.759 117.472  0.00  0.00     0.028 C 
ATOM     12  C   LIG d   1      -3.846  77.851 118.502  0.00  0.00     0.006 C 
ENDBRANCH   8  11
ENDBRANCH   7   8
ENDBRANCH   1   7
BRANCH   6  13
ATOM     13  N   LIG d   1      -7.882  77.279 117.686  0.00  0.00    -0.311 N 
ATOM     14  C   LIG d   1      -7.522  77.257 118.968  0.00  0.00     0.210 C 
ATOM     15  C   LIG d   1      -7.588  78.611 119.681  0.00  0.00     0.109 C 
ATOM     16  O   LIG d   1      -7.124  76.250 119.574  0.00  0.00    -0.276 OA
ATOM     17  H   LIG d   1      -8.160  78.144 117.267  0.00  0.00     0.149 HD
ENDBRANCH   6  13
BRANCH   5  18
ATOM     18  N   LIG d   1     -10.180  75.271 117.556  0.00  0.00     0.381 N 
ATOM     19  H   LIG d   1     -10.424  75.356 118.523  0.00  0.00    -0.090 HD
ATOM     20  H   LIG d   1     -10.729  74.530 117.157  0.00  0.00    -0.090 HD
ATOM     21  H   LIG d   1     -10.369  76.126 117.082  0.00  0.00    -0.090 HD
ENDBRANCH   5  18
BRANCH   3  22
ATOM     22  C   LIG d   1      -7.046  72.007 115.986  0.00  0.00     0.382 C 
ATOM     23  O   LIG d   1      -6.087  71.690 115.243  0.00  0.00    -0.241 OA
ATOM     24  O   LIG d   1      -7.765  71.115 116.475  0.00  0.00    -0.241 OA
ENDBRANCH   3  22
TORSDOF 7
ENDMDL
MODEL 9
REMARK VINA RESULT:      -4.8     12.323     14.528
REMARK  7 active torsions:
REMARK  status: ('A' for Active; 'I' for Inactive)
REMARK    1  A    between atoms: C_2  and  C_3 
REMARK    2  A    between atoms: C_3  and  O_6 
REMARK    3  A    between atoms: C_3  and  C_4 
REMARK    4  A    between atoms: C_7  and  O_6 
REMARK    5  A    between atoms: C_9  and  C_10 
REMARK    6  A    between atoms: N_15  and  C_14 
REMARK    7  A    between atoms: N_20  and  C_19 
REMARK       I    between atoms: C_22  and  N_20 
ROOT
ATOM      1  C   LIG d   1     -14.582  66.054 117.421  0.00  0.00     0.161 C 
ATOM      2  C   LIG d   1     -15.339  65.852 116.255  0.00  0.00     0.016 C 
ATOM      3  C   LIG d   1     -15.943  64.617 115.923  0.00  0.00     0.038 C 
ATOM      4  C   LIG d   1     -15.958  63.535 116.816  0.00  0.00     0.028 C 
ATOM      5  C   LIG d   1     -14.778  63.532 117.783  0.00  0.00    -0.047 C 
ATOM      6  C   LIG d   1     -14.680  64.918 118.460  0.00  0.00     0.091 C 
ENDROOT
BRANCH   1   7
ATOM      7  O   LIG d   1     -14.937  67.315 118.021  0.00  0.00    -0.368 OA
BRANCH   7   8
ATOM      8  C   LIG d   1     -16.252  67.829 117.694  0.00  0.00     0.119 C 
BRANCH   8   9
ATOM      9  C   LIG d   1     -16.218  69.355 117.906  0.00  0.00     0.028 C 
ATOM     10  C   LIG d   1     -16.275  69.742 119.393  0.00  0.00     0.006 C 
ENDBRANCH   8   9
BRANCH   8  11
ATOM     11  C   LIG d   1     -17.312  67.308 118.669  0.00  0.00     0.028 C 
ATOM     12  C   LIG d   1     -18.565  66.774 117.956  0.00  0.00     0.006 C 
ENDBRANCH   8  11
ENDBRANCH   7   8
ENDBRANCH   1   7
BRANCH   6  13
ATOM     13  N   LIG d   1     -13.501  65.027 119.359  0.00  0.00    -0.311 N 
ATOM     14  C   LIG d   1     -13.538  65.630 120.546  0.00  0.00     0.210 C 
ATOM     15  C   LIG d   1     -12.206  65.649 121.303  0.00  0.00     0.109 C 
ATOM     16  O   LIG d   1     -14.554  66.123 121.058  0.00  0.00    -0.276 OA
ATOM     17  H   LIG d   1     -12.642  64.627 119.035  0.00  0.00     0.149 HD
ENDBRANCH   6  13
BRANCH   5  18
ATOM     18  N   LIG d   1     -14.991  62.432 118.743  0.00  0.00     0.381 N 
ATOM     19  H   LIG d   1     -15.022  62.797 119.674  0.00  0.00    -0.090 HD
ATOM     20  H   LIG d   1     -14.220  61.792 118.680  0.00  0.00    -0.090 HD
ATOM     21  H   LIG d   1     -15.843  61.959 118.535  0.00  0.00    -0.090 HD
ENDBRANCH   5  18
BRANCH   3  22
ATOM     22  C   LIG d   1     -16.508  64.443 114.669  0.00  0.00     0.382 C 
ATOM     23  O   LIG d   1     -17.751  64.530 114.523  0.00  0.00    -0.241 OA
ATOM     24  O   LIG d   1     -15.794  64.156 113.689  0.00  0.00    -0.241 OA
ENDBRANCH   3  22
TORSDOF 7
ENDMDL
