MODEL 1
REMARK VINA RESULT:      -5.9      0.000      0.000
REMARK  7 active torsions:
REMARK  status: ('A' for Active; 'I' for Inactive)
REMARK    1  A    between atoms: C_2  and  C_3 
REMARK    2  A    between atoms: C_3  and  O_6 
REMARK    3  A    between atoms: C_3  and  C_4 
REMARK    4  A    between atoms: C_7  and  O_6 
REMARK    5  A    between atoms: C_9  and  C_10 
REMARK    6  A    between atoms: N_15  and  C_14 
REMARK    7  A    between atoms: N_20  and  C_19 
REMARK       I    between atoms: C_22  and  N_20 
ROOT
ATOM      1  C   LIG d   1      -8.163  75.486 118.307  0.00  0.00     0.161 C 
ATOM      2  C   LIG d   1      -9.425  75.870 118.790  0.00  0.00     0.016 C 
ATOM      3  C   LIG d   1      -9.822  77.218 118.943  0.00  0.00     0.038 C 
ATOM      4  C   LIG d   1      -9.033  78.281 118.478  0.00  0.00     0.028 C 
ATOM      5  C   LIG d   1      -7.543  77.961 118.447  0.00  0.00    -0.047 C 
ATOM      6  C   LIG d   1      -7.331  76.630 117.690  0.00  0.00     0.091 C 
ENDROOT
BRANCH   1   7
ATOM      7  O   LIG d   1      -8.309  74.407 117.363  0.00  0.00    -0.368 OA
BRANCH   7   8
ATOM      8  C   LIG d   1      -8.469  73.082 117.928  0.00  0.00     0.119 C 
BRANCH   8   9
ATOM      9  C   LIG d   1      -7.334  72.201 117.369  0.00  0.00     0.028 C 
ATOM     10  C   LIG d   1      -6.543  72.901 116.251  0.00  0.00     0.006 C 
ENDBRANCH   8   9
BRANCH   8  11
ATOM     11  C   LIG d   1      -9.766  72.425 117.449  0.00  0.00     0.028 C 
ATOM     12  C   LIG d   1      -9.704  70.890 117.482  0.00  0.00     0.006 C 
ENDBRANCH   8  11
ENDBRANCH   7   8
ENDBRANCH   1   7
BRANCH   6  13
ATOM     13  N   LIG d   1      -5.908  76.200 117.687  0.00  0.00    -0.311 N 
ATOM     14  C   LIG d   1      -5.055  76.497 116.709  0.00  0.00     0.210 C 
ATOM     15  C   LIG d   1      -3.640  75.939 116.893  0.00  0.00     0.109 C 
ATOM     16  O   LIG d   1      -5.326  77.198 115.722  0.00  0.00    -0.276 OA
ATOM     17  H   LIG d   1      -5.595  75.653 118.465  0.00  0.00     0.149 HD
ENDBRANCH   6  13
BRANCH   5  18
ATOM     18  N   LIG d   1      -6.855  79.102 117.814  0.00  0.00     0.381 N 
ATOM     19  H   LIG d   1      -5.871  78.925 117.776  0.00  0.00    -0.090 HD
ATOM     20  H   LIG d   1      -7.006  79.923 118.372  0.00  0.00    -0.090 HD
ATOM     21  H   LIG d   1      -7.209  79.246 116.894  0.00  0.00    -0.090 HD
ENDBRANCH   5  18
BRANCH   3  22
ATOM     22  C   LIG d   1     -11.004  77.516 119.604  0.00  0.00     0.382 C 
ATOM     23  O   LIG d   1     -12.069  76.939 119.275  0.00  0.00    -0.241 OA
ATOM     24  O   LIG d   1     -11.028  78.387 120.494  0.00  0.00    -0.241 OA
ENDBRANCH   3  22
TORSDOF 7
ENDMDL
MODEL 2
REMARK VINA RESULT:      -5.9      2.080      4.723
REMARK  7 active torsions:
REMARK  status: ('A' for Active; 'I' for Inactive)
REMARK    1  A    between atoms: C_2  and  C_3 
REMARK    2  A    between atoms: C_3  and  O_6 
REMARK    3  A    between atoms: C_3  and  C_4 
REMARK    4  A    between atoms: C_7  and  O_6 
REMARK    5  A    between atoms: C_9  and  C_10 
REMARK    6  A    between atoms: N_15  and  C_14 
REMARK    7  A    between atoms: N_20  and  C_19 
REMARK       I    between atoms: C_22  and  N_20 
ROOT
ATOM      1  C   LIG d   1      -7.936  75.630 117.154  0.00  0.00     0.161 C 
ATOM      2  C   LIG d   1      -7.214  75.374 115.976  0.00  0.00     0.016 C 
ATOM      3  C   LIG d   1      -6.117  76.157 115.549  0.00  0.00     0.038 C 
ATOM      4  C   LIG d   1      -5.569  77.166 116.355  0.00  0.00     0.028 C 
ATOM      5  C   LIG d   1      -6.576  77.787 117.317  0.00  0.00    -0.047 C 
ATOM      6  C   LIG d   1      -7.283  76.658 118.101  0.00  0.00     0.091 C 
ENDROOT
BRANCH   1   7
ATOM      7  O   LIG d   1      -8.187  74.394 117.852  0.00  0.00    -0.368 OA
BRANCH   7   8
ATOM      8  C   LIG d   1      -8.469  73.240 117.023  0.00  0.00     0.119 C 
BRANCH   8   9
ATOM      9  C   LIG d   1      -9.849  72.696 117.441  0.00  0.00     0.028 C 
ATOM     10  C   LIG d   1      -9.822  71.185 117.728  0.00  0.00     0.006 C 
ENDBRANCH   8   9
BRANCH   8  11
ATOM     11  C   LIG d   1      -7.483  72.101 117.300  0.00  0.00     0.028 C 
ATOM     12  C   LIG d   1      -6.514  71.855 116.133  0.00  0.00     0.006 C 
ENDBRANCH   8  11
ENDBRANCH   7   8
ENDBRANCH   1   7
BRANCH   6  13
ATOM     13  N   LIG d   1      -8.344  77.174 119.005  0.00  0.00    -0.311 N 
ATOM     14  C   LIG d   1      -8.145  77.434 120.296  0.00  0.00     0.210 C 
ATOM     15  C   LIG d   1      -9.378  77.940 121.052  0.00  0.00     0.109 C 
ATOM     16  O   LIG d   1      -7.056  77.325 120.880  0.00  0.00    -0.276 OA
ATOM     17  H   LIG d   1      -9.251  77.321 118.607  0.00  0.00     0.149 HD
ENDBRANCH   6  13
BRANCH   5  18
ATOM     18  N   LIG d   1      -5.841  78.724 118.188  0.00  0.00     0.381 N 
ATOM     19  H   LIG d   1      -5.450  79.462 117.638  0.00  0.00    -0.090 HD
ATOM     20  H   LIG d   1      -5.088  78.230 118.634  0.00  0.00    -0.090 HD
ATOM     21  H   LIG d   1      -6.454  79.101 118.877  0.00  0.00    -0.090 HD
ENDBRANCH   5  18
BRANCH   3  22
ATOM     22  C   LIG d   1      -5.582  75.960 114.286  0.00  0.00     0.382 C 
ATOM     23  O   LIG d   1      -4.448  75.439 114.159  0.00  0.00    -0.241 OA
ATOM     24  O   LIG d   1      -6.201  76.336 113.272  0.00  0.00    -0.241 OA
ENDBRANCH   3  22
TORSDOF 7
ENDMDL
MODEL 3
REMARK VINA RESULT:      -5.4     15.373     18.151
REMARK  7 active torsions:
REMARK  status: ('A' for Active; 'I' for Inactive)
REMARK    1  A    between atoms: C_2  and  C_3 
REMARK    2  A    between atoms: C_3  and  O_6 
REMARK    3  A    between atoms: C_3  and  C_4 
REMARK    4  A    between atoms: C_7  and  O_6 
REMARK    5  A    between atoms: C_9  and  C_10 
REMARK    6  A    between atoms: N_15  and  C_14 
REMARK    7  A    between atoms: N_20  and  C_19 
REMARK       I    between atoms: C_22  and  N_20 
ROOT
ATOM      1  C   LIG d   1      -6.523  93.254 117.394  0.00  0.00     0.161 C 
ATOM      2  C   LIG d   1      -7.259  92.360 116.599  0.00  0.00     0.016 C 
ATOM      3  C   LIG d   1      -6.724  91.157 116.083  0.00  0.00     0.038 C 
ATOM      4  C   LIG d   1      -5.455  90.690 116.453  0.00  0.00     0.028 C 
ATOM      5  C   LIG d   1      -4.491  91.805 116.847  0.00  0.00    -0.047 C 
ATOM      6  C   LIG d   1      -5.171  92.708 117.901  0.00  0.00     0.091 C 
ENDROOT
BRANCH   1   7
ATOM      7  O   LIG d   1      -7.329  93.701 118.502  0.00  0.00    -0.368 OA
BRANCH   7   8
ATOM      8  C   LIG d   1      -8.013  94.966 118.323  0.00  0.00     0.119 C 
BRANCH   8   9
ATOM      9  C   LIG d   1      -7.029  96.084 118.717  0.00  0.00     0.028 C 
ATOM     10  C   LIG d   1      -7.516  97.476 118.279  0.00  0.00     0.006 C 
ENDBRANCH   8   9
BRANCH   8  11
ATOM     11  C   LIG d   1      -9.193  95.104 119.290  0.00  0.00     0.028 C 
ATOM     12  C   LIG d   1      -9.016  94.268 120.567  0.00  0.00     0.006 C 
ENDBRANCH   8  11
ENDBRANCH   7   8
ENDBRANCH   1   7
BRANCH   6  13
ATOM     13  N   LIG d   1      -4.329  93.872 118.279  0.00  0.00    -0.311 N 
ATOM     14  C   LIG d   1      -3.516  93.877 119.334  0.00  0.00     0.210 C 
ATOM     15  C   LIG d   1      -2.752  95.186 119.555  0.00  0.00     0.109 C 
ATOM     16  O   LIG d   1      -3.331  92.911 120.089  0.00  0.00    -0.276 OA
ATOM     17  H   LIG d   1      -4.393  94.688 117.702  0.00  0.00     0.149 HD
ENDBRANCH   6  13
BRANCH   5  18
ATOM     18  N   LIG d   1      -3.254  91.170 117.341  0.00  0.00     0.381 N 
ATOM     19  H   LIG d   1      -3.341  90.974 118.319  0.00  0.00    -0.090 HD
ATOM     20  H   LIG d   1      -2.489  91.809 117.215  0.00  0.00    -0.090 HD
ATOM     21  H   LIG d   1      -3.080  90.327 116.840  0.00  0.00    -0.090 HD
ENDBRANCH   5  18
BRANCH   3  22
ATOM     22  C   LIG d   1      -7.449  90.427 115.152  0.00  0.00     0.382 C 
ATOM     23  O   LIG d   1      -6.861  89.617 114.396  0.00  0.00    -0.241 OA
ATOM     24  O   LIG d   1      -8.676  90.601 115.030  0.00  0.00    -0.241 OA
ENDBRANCH   3  22
TORSDOF 7
ENDMDL
MODEL 4
REMARK VINA RESULT:      -5.2     16.148     18.333
REMARK  7 active torsions:
REMARK  status: ('A' for Active; 'I' for Inactive)
REMARK    1  A    between atoms: C_2  and  C_3 
REMARK    2  A    between atoms: C_3  and  O_6 
REMARK    3  A    between atoms: C_3  and  C_4 
REMARK    4  A    between atoms: C_7  and  O_6 
REMARK    5  A    between atoms: C_9  and  C_10 
REMARK    6  A    between atoms: N_15  and  C_14 
REMARK    7  A    between atoms: N_20  and  C_19 
REMARK       I    between atoms: C_22  and  N_20 
ROOT
ATOM      1  C   LIG d   1      -6.223  93.185 119.469  0.00  0.00     0.161 C 
ATOM      2  C   LIG d   1      -7.486  93.681 119.104  0.00  0.00     0.016 C 
ATOM      3  C   LIG d   1      -7.733  95.044 118.820  0.00  0.00     0.038 C 
ATOM      4  C   LIG d   1      -6.696  95.984 118.735  0.00  0.00     0.028 C 
ATOM      5  C   LIG d   1      -5.483  95.628 119.588  0.00  0.00    -0.047 C 
ATOM      6  C   LIG d   1      -5.057  94.176 119.273  0.00  0.00     0.091 C 
ENDROOT
BRANCH   1   7
ATOM      7  O   LIG d   1      -5.960  91.955 118.765  0.00  0.00    -0.368 OA
BRANCH   7   8
ATOM      8  C   LIG d   1      -5.473  92.090 117.407  0.00  0.00     0.119 C 
BRANCH   8   9
ATOM      9  C   LIG d   1      -6.477  91.374 116.483  0.00  0.00     0.028 C 
ATOM     10  C   LIG d   1      -7.314  92.360 115.651  0.00  0.00     0.006 C 
ENDBRANCH   8   9
BRANCH   8  11
ATOM     11  C   LIG d   1      -4.146  91.349 117.215  0.00  0.00     0.028 C 
ATOM     12  C   LIG d   1      -3.788  90.449 118.407  0.00  0.00     0.006 C 
ENDBRANCH   8  11
ENDBRANCH   7   8
ENDBRANCH   1   7
BRANCH   6  13
ATOM     13  N   LIG d   1      -3.929  93.718 120.126  0.00  0.00    -0.311 N 
ATOM     14  C   LIG d   1      -2.656  93.751 119.737  0.00  0.00     0.210 C 
ATOM     15  C   LIG d   1      -1.652  93.214 120.763  0.00  0.00     0.109 C 
ATOM     16  O   LIG d   1      -2.258  94.205 118.653  0.00  0.00    -0.276 OA
ATOM     17  H   LIG d   1      -4.158  93.364 121.034  0.00  0.00     0.149 HD
ENDBRANCH   6  13
BRANCH   5  18
ATOM     18  N   LIG d   1      -4.428  96.616 119.298  0.00  0.00     0.381 N 
ATOM     19  H   LIG d   1      -4.690  97.510 119.664  0.00  0.00    -0.090 HD
ATOM     20  H   LIG d   1      -4.327  96.701 118.302  0.00  0.00    -0.090 HD
ATOM     21  H   LIG d   1      -3.566  96.324 119.703  0.00  0.00    -0.090 HD
ENDBRANCH   5  18
BRANCH   3  22
ATOM     22  C   LIG d   1      -9.037  95.486 118.658  0.00  0.00     0.382 C 
ATOM     23  O   LIG d   1      -9.259  96.617 118.162  0.00  0.00    -0.241 OA
ATOM     24  O   LIG d   1      -9.994  94.786 119.041  0.00  0.00    -0.241 OA
ENDBRANCH   3  22
TORSDOF 7
ENDMDL
MODEL 5
REMARK VINA RESULT:      -5.2      2.414      4.560
REMARK  7 active torsions:
REMARK  status: ('A' for Active; 'I' for Inactive)
REMARK    1  A    between atoms: C_2  and  C_3 
REMARK    2  A    between atoms: C_3  and  O_6 
REMARK    3  A    between atoms: C_3  and  C_4 
REMARK    4  A    between atoms: C_7  and  O_6 
REMARK    5  A    between atoms: C_9  and  C_10 
REMARK    6  A    between atoms: N_15  and  C_14 
REMARK    7  A    between atoms: N_20  and  C_19 
REMARK       I    between atoms: C_22  and  N_20 
ROOT
ATOM      1  C   LIG d   1      -7.153  76.584 117.229  0.00  0.00     0.161 C 
ATOM      2  C   LIG d   1      -6.600  77.870 117.354  0.00  0.00     0.016 C 
ATOM      3  C   LIG d   1      -7.233  78.924 118.053  0.00  0.00     0.038 C 
ATOM      4  C   LIG d   1      -8.398  78.719 118.807  0.00  0.00     0.028 C 
ATOM      5  C   LIG d   1      -9.257  77.567 118.295  0.00  0.00    -0.047 C 
ATOM      6  C   LIG d   1      -8.369  76.311 118.138  0.00  0.00     0.091 C 
ENDROOT
BRANCH   1   7
ATOM      7  O   LIG d   1      -6.132  75.590 117.447  0.00  0.00    -0.368 OA
BRANCH   7   8
ATOM      8  C   LIG d   1      -5.322  75.245 116.296  0.00  0.00     0.119 C 
BRANCH   8   9
ATOM      9  C   LIG d   1      -6.159  74.307 115.405  0.00  0.00     0.028 C 
ATOM     10  C   LIG d   1      -6.191  72.865 115.939  0.00  0.00     0.006 C 
ENDBRANCH   8   9
BRANCH   8  11
ATOM     11  C   LIG d   1      -4.093  74.428 116.704  0.00  0.00     0.028 C 
ATOM     12  C   LIG d   1      -2.778  75.206 116.540  0.00  0.00     0.006 C 
ENDBRANCH   8  11
ENDBRANCH   7   8
ENDBRANCH   1   7
BRANCH   6  13
ATOM     13  N   LIG d   1      -9.113  75.161 117.561  0.00  0.00    -0.311 N 
ATOM     14  C   LIG d   1      -8.969  73.907 117.988  0.00  0.00     0.210 C 
ATOM     15  C   LIG d   1      -9.814  72.870 117.243  0.00  0.00     0.109 C 
ATOM     16  O   LIG d   1      -8.245  73.561 118.933  0.00  0.00    -0.276 OA
ATOM     17  H   LIG d   1      -9.745  75.356 116.810  0.00  0.00     0.149 HD
ENDBRANCH   6  13
BRANCH   5  18
ATOM     18  N   LIG d   1     -10.364  77.378 119.250  0.00  0.00     0.381 N 
ATOM     19  H   LIG d   1     -11.028  78.120 119.152  0.00  0.00    -0.090 HD
ATOM     20  H   LIG d   1      -9.995  77.406 120.185  0.00  0.00    -0.090 HD
ATOM     21  H   LIG d   1     -10.808  76.501 119.088  0.00  0.00    -0.090 HD
ENDBRANCH   5  18
BRANCH   3  22
ATOM     22  C   LIG d   1      -6.720  80.209 117.969  0.00  0.00     0.382 C 
ATOM     23  O   LIG d   1      -5.580  80.461 118.428  0.00  0.00    -0.241 OA
ATOM     24  O   LIG d   1      -7.401  81.130 117.479  0.00  0.00    -0.241 OA
ENDBRANCH   3  22
TORSDOF 7
ENDMDL
MODEL 6
REMARK VINA RESULT:      -5.1      2.246      5.071
REMARK  7 active torsions:
REMARK  status: ('A' for Active; 'I' for Inactive)
REMARK    1  A    between atoms: C_2  and  C_3 
REMARK    2  A    between atoms: C_3  and  O_6 
REMARK    3  A    between atoms: C_3  and  C_4 
REMARK    4  A    between atoms: C_7  and  O_6 
REMARK    5  A    between atoms: C_9  and  C_10 
REMARK    6  A    between atoms: N_15  and  C_14 
REMARK    7  A    between atoms: N_20  and  C_19 
REMARK       I    between atoms: C_22  and  N_20 
ROOT
ATOM      1  C   LIG d   1      -7.619  75.374 117.057  0.00  0.00     0.161 C 
ATOM      2  C   LIG d   1      -7.897  74.026 116.774  0.00  0.00     0.016 C 
ATOM      3  C   LIG d   1      -9.032  73.345 117.270  0.00  0.00     0.038 C 
ATOM      4  C   LIG d   1     -10.051  74.011 117.966  0.00  0.00     0.028 C 
ATOM      5  C   LIG d   1      -9.568  75.254 118.706  0.00  0.00    -0.047 C 
ATOM      6  C   LIG d   1      -8.777  76.147 117.723  0.00  0.00     0.091 C 
ENDROOT
BRANCH   1   7
ATOM      7  O   LIG d   1      -7.191  76.048 115.857  0.00  0.00    -0.368 OA
BRANCH   7   8
ATOM      8  C   LIG d   1      -5.766  76.281 115.731  0.00  0.00     0.119 C 
BRANCH   8   9
ATOM      9  C   LIG d   1      -5.389  76.054 114.254  0.00  0.00     0.028 C 
ATOM     10  C   LIG d   1      -6.605  76.149 113.317  0.00  0.00     0.006 C 
ENDBRANCH   8   9
BRANCH   8  11
ATOM     11  C   LIG d   1      -4.960  75.246 116.520  0.00  0.00     0.028 C 
ATOM     12  C   LIG d   1      -3.552  75.741 116.887  0.00  0.00     0.006 C 
ENDBRANCH   8  11
ENDBRANCH   7   8
ENDBRANCH   1   7
BRANCH   6  13
ATOM     13  N   LIG d   1      -8.196  77.344 118.386  0.00  0.00    -0.311 N 
ATOM     14  C   LIG d   1      -8.906  78.427 118.695  0.00  0.00     0.210 C 
ATOM     15  C   LIG d   1      -8.108  79.556 119.356  0.00  0.00     0.109 C 
ATOM     16  O   LIG d   1     -10.127  78.548 118.514  0.00  0.00    -0.276 OA
ATOM     17  H   LIG d   1      -7.218  77.318 118.597  0.00  0.00     0.149 HD
ENDBRANCH   6  13
BRANCH   5  18
ATOM     18  N   LIG d   1     -10.753  75.926 119.271  0.00  0.00     0.381 N 
ATOM     19  H   LIG d   1     -10.836  76.846 118.888  0.00  0.00    -0.090 HD
ATOM     20  H   LIG d   1     -10.636  76.008 120.266  0.00  0.00    -0.090 HD
ATOM     21  H   LIG d   1     -11.573  75.398 119.068  0.00  0.00    -0.090 HD
ENDBRANCH   5  18
BRANCH   3  22
ATOM     22  C   LIG d   1      -9.135  71.972 117.106  0.00  0.00     0.382 C 
ATOM     23  O   LIG d   1      -8.380  71.378 116.299  0.00  0.00    -0.241 OA
ATOM     24  O   LIG d   1     -10.003  71.326 117.723  0.00  0.00    -0.241 OA
ENDBRANCH   3  22
TORSDOF 7
ENDMDL
MODEL 7
REMARK VINA RESULT:      -5.1      2.057      4.599
REMARK  7 active torsions:
REMARK  status: ('A' for Active; 'I' for Inactive)
REMARK    1  A    between atoms: C_2  and  C_3 
REMARK    2  A    between atoms: C_3  and  O_6 
REMARK    3  A    between atoms: C_3  and  C_4 
REMARK    4  A    between atoms: C_7  and  O_6 
REMARK    5  A    between atoms: C_9  and  C_10 
REMARK    6  A    between atoms: N_15  and  C_14 
REMARK    7  A    between atoms: N_20  and  C_19 
REMARK       I    between atoms: C_22  and  N_20 
ROOT
ATOM      1  C   LIG d   1      -6.941  76.305 117.636  0.00  0.00     0.161 C 
ATOM      2  C   LIG d   1      -7.463  77.557 118.000  0.00  0.00     0.016 C 
ATOM      3  C   LIG d   1      -8.805  77.754 118.399  0.00  0.00     0.038 C 
ATOM      4  C   LIG d   1      -9.683  76.679 118.607  0.00  0.00     0.028 C 
ATOM      5  C   LIG d   1      -9.346  75.451 117.768  0.00  0.00    -0.047 C 
ATOM      6  C   LIG d   1      -7.853  75.104 117.964  0.00  0.00     0.091 C 
ENDROOT
BRANCH   1   7
ATOM      7  O   LIG d   1      -5.641  76.125 118.234  0.00  0.00    -0.368 OA
BRANCH   7   8
ATOM      8  C   LIG d   1      -4.504  76.340 117.362  0.00  0.00     0.119 C 
BRANCH   8   9
ATOM      9  C   LIG d   1      -3.990  74.956 116.922  0.00  0.00     0.028 C 
ATOM     10  C   LIG d   1      -3.868  74.835 115.394  0.00  0.00     0.006 C 
ENDBRANCH   8   9
BRANCH   8  11
ATOM     11  C   LIG d   1      -3.338  76.985 118.118  0.00  0.00     0.028 C 
ATOM     12  C   LIG d   1      -3.012  78.400 117.615  0.00  0.00     0.006 C 
ENDBRANCH   8  11
ENDBRANCH   7   8
ENDBRANCH   1   7
BRANCH   6  13
ATOM     13  N   LIG d   1      -7.419  73.965 117.113  0.00  0.00    -0.311 N 
ATOM     14  C   LIG d   1      -7.477  72.693 117.505  0.00  0.00     0.210 C 
ATOM     15  C   LIG d   1      -6.961  71.677 116.481  0.00  0.00     0.109 C 
ATOM     16  O   LIG d   1      -7.936  72.308 118.590  0.00  0.00    -0.276 OA
ATOM     17  H   LIG d   1      -7.062  74.185 116.204  0.00  0.00     0.149 HD
ENDBRANCH   6  13
BRANCH   5  18
ATOM     18  N   LIG d   1     -10.252  74.365 118.184  0.00  0.00     0.381 N 
ATOM     19  H   LIG d   1     -10.551  73.846 117.382  0.00  0.00    -0.090 HD
ATOM     20  H   LIG d   1     -11.064  74.767 118.619  0.00  0.00    -0.090 HD
ATOM     21  H   LIG d   1      -9.788  73.760 118.825  0.00  0.00    -0.090 HD
ENDBRANCH   5  18
BRANCH   3  22
ATOM     22  C   LIG d   1      -9.294  79.042 118.555  0.00  0.00     0.382 C 
ATOM     23  O   LIG d   1      -8.523  80.024 118.429  0.00  0.00    -0.241 OA
ATOM     24  O   LIG d   1     -10.485  79.233 118.865  0.00  0.00    -0.241 OA
ENDBRANCH   3  22
TORSDOF 7
ENDMDL
MODEL 8
REMARK VINA RESULT:      -5.1      2.178      4.994
REMARK  7 active torsions:
REMARK  status: ('A' for Active; 'I' for Inactive)
REMARK    1  A    between atoms: C_2  and  C_3 
REMARK    2  A    between atoms: C_3  and  O_6 
REMARK    3  A    between atoms: C_3  and  C_4 
REMARK    4  A    between atoms: C_7  and  O_6 
REMARK    5  A    between atoms: C_9  and  C_10 
REMARK    6  A    between atoms: N_15  and  C_14 
REMARK    7  A    between atoms: N_20  and  C_19 
REMARK       I    between atoms: C_22  and  N_20 
ROOT
ATOM      1  C   LIG d   1      -7.568  76.581 116.628  0.00  0.00     0.161 C 
ATOM      2  C   LIG d   1      -7.249  75.358 116.014  0.00  0.00     0.016 C 
ATOM      3  C   LIG d   1      -5.954  74.791 116.036  0.00  0.00     0.038 C 
ATOM      4  C   LIG d   1      -4.918  75.338 116.807  0.00  0.00     0.028 C 
ATOM      5  C   LIG d   1      -5.058  76.840 117.032  0.00  0.00    -0.047 C 
ATOM      6  C   LIG d   1      -6.478  77.136 117.568  0.00  0.00     0.091 C 
ENDROOT
BRANCH   1   7
ATOM      7  O   LIG d   1      -8.822  76.462 117.330  0.00  0.00    -0.368 OA
BRANCH   7   8
ATOM      8  C   LIG d   1      -8.860  75.494 118.407  0.00  0.00     0.119 C 
BRANCH   8   9
ATOM      9  C   LIG d   1     -10.113  74.621 118.200  0.00  0.00     0.028 C 
ATOM     10  C   LIG d   1      -9.765  73.199 117.728  0.00  0.00     0.006 C 
ENDBRANCH   8   9
BRANCH   8  11
ATOM     11  C   LIG d   1      -9.062  76.177 119.763  0.00  0.00     0.028 C 
ATOM     12  C   LIG d   1      -7.944  75.851 120.766  0.00  0.00     0.006 C 
ENDBRANCH   8  11
ENDBRANCH   7   8
ENDBRANCH   1   7
BRANCH   6  13
ATOM     13  N   LIG d   1      -6.728  78.592 117.736  0.00  0.00    -0.311 N 
ATOM     14  C   LIG d   1      -6.522  79.244 118.879  0.00  0.00     0.210 C 
ATOM     15  C   LIG d   1      -6.863  80.737 118.841  0.00  0.00     0.109 C 
ATOM     16  O   LIG d   1      -6.060  78.734 119.910  0.00  0.00    -0.276 OA
ATOM     17  H   LIG d   1      -7.074  79.090 116.939  0.00  0.00     0.149 HD
ENDBRANCH   6  13
BRANCH   5  18
ATOM     18  N   LIG d   1      -3.991  77.253 117.963  0.00  0.00     0.381 N 
ATOM     19  H   LIG d   1      -3.660  76.459 118.473  0.00  0.00    -0.090 HD
ATOM     20  H   LIG d   1      -4.369  77.914 118.619  0.00  0.00    -0.090 HD
ATOM     21  H   LIG d   1      -3.240  77.669 117.457  0.00  0.00    -0.090 HD
ENDBRANCH   5  18
BRANCH   3  22
ATOM     22  C   LIG d   1      -5.675  73.685 115.247  0.00  0.00     0.382 C 
ATOM     23  O   LIG d   1      -6.132  72.560 115.561  0.00  0.00    -0.241 OA
ATOM     24  O   LIG d   1      -4.935  73.790 114.251  0.00  0.00    -0.241 OA
ENDBRANCH   3  22
TORSDOF 7
ENDMDL
MODEL 9
REMARK VINA RESULT:      -4.9      1.872      2.868
REMARK  7 active torsions:
REMARK  status: ('A' for Active; 'I' for Inactive)
REMARK    1  A    between atoms: C_2  and  C_3 
REMARK    2  A    between atoms: C_3  and  O_6 
REMARK    3  A    between atoms: C_3  and  C_4 
REMARK    4  A    between atoms: C_7  and  O_6 
REMARK    5  A    between atoms: C_9  and  C_10 
REMARK    6  A    between atoms: N_15  and  C_14 
REMARK    7  A    between atoms: N_20  and  C_19 
REMARK       I    between atoms: C_22  and  N_20 
ROOT
ATOM      1  C   LIG d   1      -6.685  76.313 117.381  0.00  0.00     0.161 C 
ATOM      2  C   LIG d   1      -7.998  75.855 117.582  0.00  0.00     0.016 C 
ATOM      3  C   LIG d   1      -9.037  76.669 118.089  0.00  0.00     0.038 C 
ATOM      4  C   LIG d   1      -8.869  78.047 118.288  0.00  0.00     0.028 C 
ATOM      5  C   LIG d   1      -7.425  78.446 118.577  0.00  0.00    -0.047 C 
ATOM      6  C   LIG d   1      -6.510  77.842 117.487  0.00  0.00     0.091 C 
ENDROOT
BRANCH   1   7
ATOM      7  O   LIG d   1      -6.192  75.839 116.112  0.00  0.00    -0.368 OA
BRANCH   7   8
ATOM      8  C   LIG d   1      -5.304  74.695 116.160  0.00  0.00     0.119 C 
BRANCH   8   9
ATOM      9  C   LIG d   1      -4.036  75.059 115.363  0.00  0.00     0.028 C 
ATOM     10  C   LIG d   1      -4.219  76.332 114.519  0.00  0.00     0.006 C 
ENDBRANCH   8   9
BRANCH   8  11
ATOM     11  C   LIG d   1      -5.908  73.490 115.432  0.00  0.00     0.028 C 
ATOM     12  C   LIG d   1      -6.530  72.465 116.393  0.00  0.00     0.006 C 
ENDBRANCH   8  11
ENDBRANCH   7   8
ENDBRANCH   1   7
BRANCH   6  13
ATOM     13  N   LIG d   1      -5.071  78.113 117.741  0.00  0.00    -0.311 N 
ATOM     14  C   LIG d   1      -4.416  79.147 117.215  0.00  0.00     0.210 C 
ATOM     15  C   LIG d   1      -2.933  79.230 117.590  0.00  0.00     0.109 C 
ATOM     16  O   LIG d   1      -4.930  80.020 116.500  0.00  0.00    -0.276 OA
ATOM     17  H   LIG d   1      -4.584  77.471 118.336  0.00  0.00     0.149 HD
ENDBRANCH   6  13
BRANCH   5  18
ATOM     18  N   LIG d   1      -7.371  79.919 118.627  0.00  0.00     0.381 N 
ATOM     19  H   LIG d   1      -7.588  80.235 119.551  0.00  0.00    -0.090 HD
ATOM     20  H   LIG d   1      -8.059  80.291 117.997  0.00  0.00    -0.090 HD
ATOM     21  H   LIG d   1      -6.464  80.236 118.364  0.00  0.00    -0.090 HD
ENDBRANCH   5  18
BRANCH   3  22
ATOM     22  C   LIG d   1     -10.250  76.096 118.439  0.00  0.00     0.382 C 
ATOM     23  O   LIG d   1     -10.340  74.852 118.575  0.00  0.00    -0.241 OA
ATOM     24  O   LIG d   1     -11.266  76.803 118.579  0.00  0.00    -0.241 OA
ENDBRANCH   3  22
TORSDOF 7
ENDMDL
