MODEL 1
REMARK VINA RESULT:      -5.9      0.000      0.000
REMARK  7 active torsions:
REMARK  status: ('A' for Active; 'I' for Inactive)
REMARK    1  A    between atoms: C_2  and  C_3 
REMARK    2  A    between atoms: C_3  and  O_6 
REMARK    3  A    between atoms: C_3  and  C_4 
REMARK    4  A    between atoms: C_7  and  O_6 
REMARK    5  A    between atoms: C_9  and  C_10 
REMARK    6  A    between atoms: N_15  and  C_14 
REMARK    7  A    between atoms: N_20  and  C_19 
REMARK       I    between atoms: C_22  and  N_20 
ROOT
ATOM      1  C   LIG d   1      -8.152  75.839 117.914  0.00  0.00     0.161 C 
ATOM      2  C   LIG d   1      -9.521  75.826 118.232  0.00  0.00     0.016 C 
ATOM      3  C   LIG d   1     -10.240  76.980 118.619  0.00  0.00     0.038 C 
ATOM      4  C   LIG d   1      -9.670  78.261 118.568  0.00  0.00     0.028 C 
ATOM      5  C   LIG d   1      -8.155  78.257 118.739  0.00  0.00    -0.047 C 
ATOM      6  C   LIG d   1      -7.540  77.245 117.745  0.00  0.00     0.091 C 
ENDROOT
BRANCH   1   7
ATOM      7  O   LIG d   1      -7.918  75.045 116.734  0.00  0.00    -0.368 OA
BRANCH   7   8
ATOM      8  C   LIG d   1      -7.379  73.718 116.954  0.00  0.00     0.119 C 
BRANCH   8   9
ATOM      9  C   LIG d   1      -6.423  73.407 115.787  0.00  0.00     0.028 C 
ATOM     10  C   LIG d   1      -5.825  74.679 115.163  0.00  0.00     0.006 C 
ENDBRANCH   8   9
BRANCH   8  11
ATOM     11  C   LIG d   1      -8.476  72.652 116.876  0.00  0.00     0.028 C 
ATOM     12  C   LIG d   1      -7.929  71.260 116.523  0.00  0.00     0.006 C 
ENDBRANCH   8  11
ENDBRANCH   7   8
ENDBRANCH   1   7
BRANCH   6  13
ATOM     13  N   LIG d   1      -6.068  77.117 117.905  0.00  0.00    -0.311 N 
ATOM     14  C   LIG d   1      -5.190  77.811 117.183  0.00  0.00     0.210 C 
ATOM     15  C   LIG d   1      -3.719  77.513 117.493  0.00  0.00     0.109 C 
ATOM     16  O   LIG d   1      -5.489  78.669 116.339  0.00  0.00    -0.276 OA
ATOM     17  H   LIG d   1      -5.738  76.466 118.590  0.00  0.00     0.149 HD
ENDBRANCH   6  13
BRANCH   5  18
ATOM     18  N   LIG d   1      -7.679  79.637 118.528  0.00  0.00     0.381 N 
ATOM     19  H   LIG d   1      -7.941  79.950 117.614  0.00  0.00    -0.090 HD
ATOM     20  H   LIG d   1      -6.676  79.648 118.589  0.00  0.00    -0.090 HD
ATOM     21  H   LIG d   1      -8.068  80.241 119.218  0.00  0.00    -0.090 HD
ENDBRANCH   5  18
BRANCH   3  22
ATOM     22  C   LIG d   1     -11.534  76.854 119.101  0.00  0.00     0.382 C 
ATOM     23  O   LIG d   1     -11.756  76.944 120.333  0.00  0.00    -0.241 OA
ATOM     24  O   LIG d   1     -12.476  76.606 118.325  0.00  0.00    -0.241 OA
ENDBRANCH   3  22
TORSDOF 7
ENDMDL
MODEL 2
REMARK VINA RESULT:      -5.6      2.878      4.575
REMARK  7 active torsions:
REMARK  status: ('A' for Active; 'I' for Inactive)
REMARK    1  A    between atoms: C_2  and  C_3 
REMARK    2  A    between atoms: C_3  and  O_6 
REMARK    3  A    between atoms: C_3  and  C_4 
REMARK    4  A    between atoms: C_7  and  O_6 
REMARK    5  A    between atoms: C_9  and  C_10 
REMARK    6  A    between atoms: N_15  and  C_14 
REMARK    7  A    between atoms: N_20  and  C_19 
REMARK       I    between atoms: C_22  and  N_20 
ROOT
ATOM      1  C   LIG d   1      -5.989  74.905 116.274  0.00  0.00     0.161 C 
ATOM      2  C   LIG d   1      -6.621  73.674 116.033  0.00  0.00     0.016 C 
ATOM      3  C   LIG d   1      -7.814  73.272 116.677  0.00  0.00     0.038 C 
ATOM      4  C   LIG d   1      -8.543  74.145 117.499  0.00  0.00     0.028 C 
ATOM      5  C   LIG d   1      -7.680  75.212 118.165  0.00  0.00    -0.047 C 
ATOM      6  C   LIG d   1      -6.829  75.916 117.084  0.00  0.00     0.091 C 
ENDROOT
BRANCH   1   7
ATOM      7  O   LIG d   1      -5.568  75.490 115.026  0.00  0.00    -0.368 OA
BRANCH   7   8
ATOM      8  C   LIG d   1      -4.142  75.484 114.768  0.00  0.00     0.119 C 
BRANCH   8   9
ATOM      9  C   LIG d   1      -3.446  74.935 116.028  0.00  0.00     0.028 C 
ATOM     10  C   LIG d   1      -2.006  74.474 115.750  0.00  0.00     0.006 C 
ENDBRANCH   8   9
BRANCH   8  11
ATOM     11  C   LIG d   1      -3.601  76.906 114.592  0.00  0.00     0.028 C 
ATOM     12  C   LIG d   1      -2.907  77.116 113.237  0.00  0.00     0.006 C 
ENDBRANCH   8  11
ENDBRANCH   7   8
ENDBRANCH   1   7
BRANCH   6  13
ATOM     13  N   LIG d   1      -5.894  76.917 117.661  0.00  0.00    -0.311 N 
ATOM     14  C   LIG d   1      -5.860  78.193 117.281  0.00  0.00     0.210 C 
ATOM     15  C   LIG d   1      -4.807  79.051 117.989  0.00  0.00     0.109 C 
ATOM     16  O   LIG d   1      -6.624  78.703 116.448  0.00  0.00    -0.276 OA
ATOM     17  H   LIG d   1      -5.260  76.595 118.366  0.00  0.00     0.149 HD
ENDBRANCH   6  13
BRANCH   5  18
ATOM     18  N   LIG d   1      -8.583  76.133 118.880  0.00  0.00     0.381 N 
ATOM     19  H   LIG d   1      -9.491  76.111 118.460  0.00  0.00    -0.090 HD
ATOM     20  H   LIG d   1      -8.223  77.068 118.802  0.00  0.00    -0.090 HD
ATOM     21  H   LIG d   1      -8.646  75.873 119.839  0.00  0.00    -0.090 HD
ENDBRANCH   5  18
BRANCH   3  22
ATOM     22  C   LIG d   1      -8.269  71.970 116.532  0.00  0.00     0.382 C 
ATOM     23  O   LIG d   1      -7.523  71.099 116.022  0.00  0.00    -0.241 OA
ATOM     24  O   LIG d   1      -9.430  71.666 116.865  0.00  0.00    -0.241 OA
ENDBRANCH   3  22
TORSDOF 7
ENDMDL
MODEL 3
REMARK VINA RESULT:      -5.6      2.115      4.993
REMARK  7 active torsions:
REMARK  status: ('A' for Active; 'I' for Inactive)
REMARK    1  A    between atoms: C_2  and  C_3 
REMARK    2  A    between atoms: C_3  and  O_6 
REMARK    3  A    between atoms: C_3  and  C_4 
REMARK    4  A    between atoms: C_7  and  O_6 
REMARK    5  A    between atoms: C_9  and  C_10 
REMARK    6  A    between atoms: N_15  and  C_14 
REMARK    7  A    between atoms: N_20  and  C_19 
REMARK       I    between atoms: C_22  and  N_20 
ROOT
ATOM      1  C   LIG d   1      -7.696  75.524 117.742  0.00  0.00     0.161 C 
ATOM      2  C   LIG d   1      -8.263  74.240 117.678  0.00  0.00     0.016 C 
ATOM      3  C   LIG d   1      -7.814  73.235 116.791  0.00  0.00     0.038 C 
ATOM      4  C   LIG d   1      -6.661  73.397 116.009  0.00  0.00     0.028 C 
ATOM      5  C   LIG d   1      -6.358  74.853 115.671  0.00  0.00    -0.047 C 
ATOM      6  C   LIG d   1      -6.367  75.683 116.975  0.00  0.00     0.091 C 
ENDROOT
BRANCH   1   7
ATOM      7  O   LIG d   1      -7.530  75.917 119.119  0.00  0.00    -0.368 OA
BRANCH   7   8
ATOM      8  C   LIG d   1      -8.400  76.976 119.589  0.00  0.00     0.119 C 
BRANCH   8   9
ATOM      9  C   LIG d   1      -9.410  76.346 120.568  0.00  0.00     0.028 C 
ATOM     10  C   LIG d   1     -10.831  76.905 120.385  0.00  0.00     0.006 C 
ENDBRANCH   8   9
BRANCH   8  11
ATOM     11  C   LIG d   1      -9.245  77.551 118.448  0.00  0.00     0.028 C 
ATOM     12  C   LIG d   1      -8.894  79.011 118.124  0.00  0.00     0.006 C 
ENDBRANCH   8  11
ENDBRANCH   7   8
ENDBRANCH   1   7
BRANCH   6  13
ATOM     13  N   LIG d   1      -6.162  77.134 116.726  0.00  0.00    -0.311 N 
ATOM     14  C   LIG d   1      -5.313  77.885 117.424  0.00  0.00     0.210 C 
ATOM     15  C   LIG d   1      -5.270  79.362 117.017  0.00  0.00     0.109 C 
ATOM     16  O   LIG d   1      -4.568  77.463 118.321  0.00  0.00    -0.276 OA
ATOM     17  H   LIG d   1      -6.704  77.552 115.995  0.00  0.00     0.149 HD
ENDBRANCH   6  13
BRANCH   5  18
ATOM     18  N   LIG d   1      -5.060  74.888 114.972  0.00  0.00     0.381 N 
ATOM     19  H   LIG d   1      -5.051  75.639 114.312  0.00  0.00    -0.090 HD
ATOM     20  H   LIG d   1      -4.937  74.026 114.471  0.00  0.00    -0.090 HD
ATOM     21  H   LIG d   1      -4.321  75.006 115.630  0.00  0.00    -0.090 HD
ENDBRANCH   5  18
BRANCH   3  22
ATOM     22  C   LIG d   1      -8.545  72.065 116.652  0.00  0.00     0.382 C 
ATOM     23  O   LIG d   1      -9.792  72.085 116.787  0.00  0.00    -0.241 OA
ATOM     24  O   LIG d   1      -7.969  70.982 116.436  0.00  0.00    -0.241 OA
ENDBRANCH   3  22
TORSDOF 7
ENDMDL
MODEL 4
REMARK VINA RESULT:      -5.6      2.054      4.960
REMARK  7 active torsions:
REMARK  status: ('A' for Active; 'I' for Inactive)
REMARK    1  A    between atoms: C_2  and  C_3 
REMARK    2  A    between atoms: C_3  and  O_6 
REMARK    3  A    between atoms: C_3  and  C_4 
REMARK    4  A    between atoms: C_7  and  O_6 
REMARK    5  A    between atoms: C_9  and  C_10 
REMARK    6  A    between atoms: N_15  and  C_14 
REMARK    7  A    between atoms: N_20  and  C_19 
REMARK       I    between atoms: C_22  and  N_20 
ROOT
ATOM      1  C   LIG d   1      -7.929  75.380 117.714  0.00  0.00     0.161 C 
ATOM      2  C   LIG d   1      -8.360  74.049 117.591  0.00  0.00     0.016 C 
ATOM      3  C   LIG d   1      -7.763  73.116 116.713  0.00  0.00     0.038 C 
ATOM      4  C   LIG d   1      -6.589  73.411 116.004  0.00  0.00     0.028 C 
ATOM      5  C   LIG d   1      -6.414  74.898 115.714  0.00  0.00    -0.047 C 
ATOM      6  C   LIG d   1      -6.580  75.689 117.031  0.00  0.00     0.091 C 
ENDROOT
BRANCH   1   7
ATOM      7  O   LIG d   1      -7.882  75.752 119.106  0.00  0.00    -0.368 OA
BRANCH   7   8
ATOM      8  C   LIG d   1      -8.982  76.564 119.586  0.00  0.00     0.119 C 
BRANCH   8   9
ATOM      9  C   LIG d   1      -9.575  77.305 118.372  0.00  0.00     0.028 C 
ATOM     10  C   LIG d   1      -9.366  78.826 118.453  0.00  0.00     0.006 C 
ENDBRANCH   8   9
BRANCH   8  11
ATOM     11  C   LIG d   1      -8.491  77.664 120.532  0.00  0.00     0.028 C 
ATOM     12  C   LIG d   1      -7.050  77.435 121.015  0.00  0.00     0.006 C 
ENDBRANCH   8  11
ENDBRANCH   7   8
ENDBRANCH   1   7
BRANCH   6  13
ATOM     13  N   LIG d   1      -6.508  77.159 116.822  0.00  0.00    -0.311 N 
ATOM     14  C   LIG d   1      -5.659  77.951 117.475  0.00  0.00     0.210 C 
ATOM     15  C   LIG d   1      -5.763  79.439 117.125  0.00  0.00     0.109 C 
ATOM     16  O   LIG d   1      -4.808  77.559 118.288  0.00  0.00    -0.276 OA
ATOM     17  H   LIG d   1      -7.141  77.557 116.157  0.00  0.00     0.149 HD
ENDBRANCH   6  13
BRANCH   5  18
ATOM     18  N   LIG d   1      -5.088  75.078 115.094  0.00  0.00     0.381 N 
ATOM     19  H   LIG d   1      -5.031  74.539 114.253  0.00  0.00    -0.090 HD
ATOM     20  H   LIG d   1      -4.384  74.746 115.729  0.00  0.00    -0.090 HD
ATOM     21  H   LIG d   1      -4.935  76.041 114.891  0.00  0.00    -0.090 HD
ENDBRANCH   5  18
BRANCH   3  22
ATOM     22  C   LIG d   1      -8.364  71.883 116.508  0.00  0.00     0.382 C 
ATOM     23  O   LIG d   1      -7.676  70.905 116.129  0.00  0.00    -0.241 OA
ATOM     24  O   LIG d   1      -9.594  71.748 116.654  0.00  0.00    -0.241 OA
ENDBRANCH   3  22
TORSDOF 7
ENDMDL
MODEL 5
REMARK VINA RESULT:      -5.2      2.320      6.389
REMARK  7 active torsions:
REMARK  status: ('A' for Active; 'I' for Inactive)
REMARK    1  A    between atoms: C_2  and  C_3 
REMARK    2  A    between atoms: C_3  and  O_6 
REMARK    3  A    between atoms: C_3  and  C_4 
REMARK    4  A    between atoms: C_7  and  O_6 
REMARK    5  A    between atoms: C_9  and  C_10 
REMARK    6  A    between atoms: N_15  and  C_14 
REMARK    7  A    between atoms: N_20  and  C_19 
REMARK       I    between atoms: C_22  and  N_20 
ROOT
ATOM      1  C   LIG d   1      -6.800  76.829 117.345  0.00  0.00     0.161 C 
ATOM      2  C   LIG d   1      -5.704  76.312 116.635  0.00  0.00     0.016 C 
ATOM      3  C   LIG d   1      -5.649  74.986 116.148  0.00  0.00     0.038 C 
ATOM      4  C   LIG d   1      -6.756  74.127 116.208  0.00  0.00     0.028 C 
ATOM      5  C   LIG d   1      -7.703  74.439 117.363  0.00  0.00    -0.047 C 
ATOM      6  C   LIG d   1      -8.062  75.942 117.324  0.00  0.00     0.091 C 
ENDROOT
BRANCH   1   7
ATOM      7  O   LIG d   1      -7.110  78.154 116.868  0.00  0.00    -0.368 OA
BRANCH   7   8
ATOM      8  C   LIG d   1      -6.899  79.236 117.808  0.00  0.00     0.119 C 
BRANCH   8   9
ATOM      9  C   LIG d   1      -8.113  80.179 117.709  0.00  0.00     0.028 C 
ATOM     10  C   LIG d   1      -9.100  79.991 118.874  0.00  0.00     0.006 C 
ENDBRANCH   8   9
BRANCH   8  11
ATOM     11  C   LIG d   1      -5.690  80.088 117.414  0.00  0.00     0.028 C 
ATOM     12  C   LIG d   1      -4.382  79.602 118.058  0.00  0.00     0.006 C 
ENDBRANCH   8  11
ENDBRANCH   7   8
ENDBRANCH   1   7
BRANCH   6  13
ATOM     13  N   LIG d   1      -8.918  76.350 118.469  0.00  0.00    -0.311 N 
ATOM     14  C   LIG d   1     -10.249  76.347 118.427  0.00  0.00     0.210 C 
ATOM     15  C   LIG d   1     -10.938  76.823 119.709  0.00  0.00     0.109 C 
ATOM     16  O   LIG d   1     -10.925  75.965 117.460  0.00  0.00    -0.276 OA
ATOM     17  H   LIG d   1      -8.451  76.645 119.304  0.00  0.00     0.149 HD
ENDBRANCH   6  13
BRANCH   5  18
ATOM     18  N   LIG d   1      -8.879  73.560 117.225  0.00  0.00     0.381 N 
ATOM     19  H   LIG d   1      -9.647  74.078 116.847  0.00  0.00    -0.090 HD
ATOM     20  H   LIG d   1      -9.142  73.224 118.135  0.00  0.00    -0.090 HD
ATOM     21  H   LIG d   1      -8.662  72.791 116.629  0.00  0.00    -0.090 HD
ENDBRANCH   5  18
BRANCH   3  22
ATOM     22  C   LIG d   1      -4.461  74.493 115.628  0.00  0.00     0.382 C 
ATOM     23  O   LIG d   1      -3.638  73.919 116.381  0.00  0.00    -0.241 OA
ATOM     24  O   LIG d   1      -4.183  74.656 114.425  0.00  0.00    -0.241 OA
ENDBRANCH   3  22
TORSDOF 7
ENDMDL
MODEL 6
REMARK VINA RESULT:      -5.2      1.412      2.235
REMARK  7 active torsions:
REMARK  status: ('A' for Active; 'I' for Inactive)
REMARK    1  A    between atoms: C_2  and  C_3 
REMARK    2  A    between atoms: C_3  and  O_6 
REMARK    3  A    between atoms: C_3  and  C_4 
REMARK    4  A    between atoms: C_7  and  O_6 
REMARK    5  A    between atoms: C_9  and  C_10 
REMARK    6  A    between atoms: N_15  and  C_14 
REMARK    7  A    between atoms: N_20  and  C_19 
REMARK       I    between atoms: C_22  and  N_20 
ROOT
ATOM      1  C   LIG d   1      -7.302  76.237 118.488  0.00  0.00     0.161 C 
ATOM      2  C   LIG d   1      -8.622  75.843 118.214  0.00  0.00     0.016 C 
ATOM      3  C   LIG d   1      -9.715  76.739 118.198  0.00  0.00     0.038 C 
ATOM      4  C   LIG d   1      -9.537  78.127 118.308  0.00  0.00     0.028 C 
ATOM      5  C   LIG d   1      -8.286  78.518 119.088  0.00  0.00    -0.047 C 
ATOM      6  C   LIG d   1      -7.072  77.763 118.500  0.00  0.00     0.091 C 
ENDROOT
BRANCH   1   7
ATOM      7  O   LIG d   1      -6.399  75.602 117.561  0.00  0.00    -0.368 OA
BRANCH   7   8
ATOM      8  C   LIG d   1      -6.973  75.185 116.297  0.00  0.00     0.119 C 
BRANCH   8   9
ATOM      9  C   LIG d   1      -6.527  73.732 116.044  0.00  0.00     0.028 C 
ATOM     10  C   LIG d   1      -7.587  72.708 116.485  0.00  0.00     0.006 C 
ENDBRANCH   8   9
BRANCH   8  11
ATOM     11  C   LIG d   1      -6.400  75.994 115.131  0.00  0.00     0.028 C 
ATOM     12  C   LIG d   1      -5.077  75.419 114.599  0.00  0.00     0.006 C 
ENDBRANCH   8  11
ENDBRANCH   7   8
ENDBRANCH   1   7
BRANCH   6  13
ATOM     13  N   LIG d   1      -5.821  78.024 119.259  0.00  0.00    -0.311 N 
ATOM     14  C   LIG d   1      -4.948  78.975 118.929  0.00  0.00     0.210 C 
ATOM     15  C   LIG d   1      -3.715  79.062 119.833  0.00  0.00     0.109 C 
ATOM     16  O   LIG d   1      -5.095  79.776 117.993  0.00  0.00    -0.276 OA
ATOM     17  H   LIG d   1      -5.639  77.441 120.052  0.00  0.00     0.149 HD
ENDBRANCH   6  13
BRANCH   5  18
ATOM     18  N   LIG d   1      -8.151  79.984 119.006  0.00  0.00     0.381 N 
ATOM     19  H   LIG d   1      -9.018  80.419 119.251  0.00  0.00    -0.090 HD
ATOM     20  H   LIG d   1      -7.927  80.238 118.060  0.00  0.00    -0.090 HD
ATOM     21  H   LIG d   1      -7.430  80.295 119.620  0.00  0.00    -0.090 HD
ENDBRANCH   5  18
BRANCH   3  22
ATOM     22  C   LIG d   1     -11.007  76.246 118.112  0.00  0.00     0.382 C 
ATOM     23  O   LIG d   1     -11.239  75.207 117.448  0.00  0.00    -0.241 OA
ATOM     24  O   LIG d   1     -11.952  76.851 118.653  0.00  0.00    -0.241 OA
ENDBRANCH   3  22
TORSDOF 7
ENDMDL
MODEL 7
REMARK VINA RESULT:      -5.0      2.701      6.824
REMARK  7 active torsions:
REMARK  status: ('A' for Active; 'I' for Inactive)
REMARK    1  A    between atoms: C_2  and  C_3 
REMARK    2  A    between atoms: C_3  and  O_6 
REMARK    3  A    between atoms: C_3  and  C_4 
REMARK    4  A    between atoms: C_7  and  O_6 
REMARK    5  A    between atoms: C_9  and  C_10 
REMARK    6  A    between atoms: N_15  and  C_14 
REMARK    7  A    between atoms: N_20  and  C_19 
REMARK       I    between atoms: C_22  and  N_20 
ROOT
ATOM      1  C   LIG d   1      -8.390  78.967 118.385  0.00  0.00     0.161 C 
ATOM      2  C   LIG d   1      -7.300  78.957 117.499  0.00  0.00     0.016 C 
ATOM      3  C   LIG d   1      -6.924  77.824 116.741  0.00  0.00     0.038 C 
ATOM      4  C   LIG d   1      -7.709  76.663 116.704  0.00  0.00     0.028 C 
ATOM      5  C   LIG d   1      -8.537  76.451 117.967  0.00  0.00    -0.047 C 
ATOM      6  C   LIG d   1      -9.325  77.744 118.274  0.00  0.00     0.091 C 
ENDROOT
BRANCH   1   7
ATOM      7  O   LIG d   1      -9.140  80.187 118.223  0.00  0.00    -0.368 OA
BRANCH   7   8
ATOM      8  C   LIG d   1      -8.361  81.400 118.079  0.00  0.00     0.119 C 
BRANCH   8   9
ATOM      9  C   LIG d   1      -7.795  81.754 119.469  0.00  0.00     0.028 C 
ATOM     10  C   LIG d   1      -6.532  82.627 119.383  0.00  0.00     0.006 C 
ENDBRANCH   8   9
BRANCH   8  11
ATOM     11  C   LIG d   1      -9.245  82.588 117.688  0.00  0.00     0.028 C 
ATOM     12  C   LIG d   1     -10.705  82.183 117.427  0.00  0.00     0.006 C 
ENDBRANCH   8  11
ENDBRANCH   7   8
ENDBRANCH   1   7
BRANCH   6  13
ATOM     13  N   LIG d   1     -10.096  77.651 119.541  0.00  0.00    -0.311 N 
ATOM     14  C   LIG d   1     -11.352  77.213 119.604  0.00  0.00     0.210 C 
ATOM     15  C   LIG d   1     -11.968  77.216 121.007  0.00  0.00     0.109 C 
ATOM     16  O   LIG d   1     -12.003  76.791 118.637  0.00  0.00    -0.276 OA
ATOM     17  H   LIG d   1      -9.633  77.944 120.379  0.00  0.00     0.149 HD
ENDBRANCH   6  13
BRANCH   5  18
ATOM     18  N   LIG d   1      -9.408  75.283 117.738  0.00  0.00     0.381 N 
ATOM     19  H   LIG d   1     -10.357  75.522 117.947  0.00  0.00    -0.090 HD
ATOM     20  H   LIG d   1      -9.127  74.541 118.355  0.00  0.00    -0.090 HD
ATOM     21  H   LIG d   1      -9.335  74.983 116.791  0.00  0.00    -0.090 HD
ENDBRANCH   5  18
BRANCH   3  22
ATOM     22  C   LIG d   1      -5.728  77.833 116.040  0.00  0.00     0.382 C 
ATOM     23  O   LIG d   1      -4.866  78.713 116.281  0.00  0.00    -0.241 OA
ATOM     24  O   LIG d   1      -5.518  77.000 115.138  0.00  0.00    -0.241 OA
ENDBRANCH   3  22
TORSDOF 7
ENDMDL
MODEL 8
REMARK VINA RESULT:      -5.0      2.605      5.241
REMARK  7 active torsions:
REMARK  status: ('A' for Active; 'I' for Inactive)
REMARK    1  A    between atoms: C_2  and  C_3 
REMARK    2  A    between atoms: C_3  and  O_6 
REMARK    3  A    between atoms: C_3  and  C_4 
REMARK    4  A    between atoms: C_7  and  O_6 
REMARK    5  A    between atoms: C_9  and  C_10 
REMARK    6  A    between atoms: N_15  and  C_14 
REMARK    7  A    between atoms: N_20  and  C_19 
REMARK       I    between atoms: C_22  and  N_20 
ROOT
ATOM      1  C   LIG d   1      -8.693  79.166 118.190  0.00  0.00     0.161 C 
ATOM      2  C   LIG d   1      -9.929  78.703 118.672  0.00  0.00     0.016 C 
ATOM      3  C   LIG d   1     -10.201  77.341 118.933  0.00  0.00     0.038 C 
ATOM      4  C   LIG d   1      -9.199  76.360 118.873  0.00  0.00     0.028 C 
ATOM      5  C   LIG d   1      -8.071  76.704 117.906  0.00  0.00    -0.047 C 
ATOM      6  C   LIG d   1      -7.554  78.126 118.224  0.00  0.00     0.091 C 
ENDROOT
BRANCH   1   7
ATOM      7  O   LIG d   1      -8.305  80.357 118.903  0.00  0.00    -0.368 OA
BRANCH   7   8
ATOM      8  C   LIG d   1      -8.236  81.575 118.122  0.00  0.00     0.119 C 
BRANCH   8   9
ATOM      9  C   LIG d   1      -6.946  82.313 118.528  0.00  0.00     0.028 C 
ATOM     10  C   LIG d   1      -6.072  81.484 119.484  0.00  0.00     0.006 C 
ENDBRANCH   8   9
BRANCH   8  11
ATOM     11  C   LIG d   1      -9.379  82.531 118.477  0.00  0.00     0.028 C 
ATOM     12  C   LIG d   1     -10.573  82.415 117.517  0.00  0.00     0.006 C 
ENDBRANCH   8  11
ENDBRANCH   7   8
ENDBRANCH   1   7
BRANCH   6  13
ATOM     13  N   LIG d   1      -6.506  78.574 117.270  0.00  0.00    -0.311 N 
ATOM     14  C   LIG d   1      -5.201  78.455 117.506  0.00  0.00     0.210 C 
ATOM     15  C   LIG d   1      -4.292  79.000 116.400  0.00  0.00     0.109 C 
ATOM     16  O   LIG d   1      -4.710  77.922 118.512  0.00  0.00    -0.276 OA
ATOM     17  H   LIG d   1      -6.817  78.991 116.414  0.00  0.00     0.149 HD
ENDBRANCH   6  13
BRANCH   5  18
ATOM     18  N   LIG d   1      -7.033  75.666 118.045  0.00  0.00     0.381 N 
ATOM     19  H   LIG d   1      -7.419  74.858 118.490  0.00  0.00    -0.090 HD
ATOM     20  H   LIG d   1      -6.293  76.022 118.624  0.00  0.00    -0.090 HD
ATOM     21  H   LIG d   1      -6.673  75.421 117.148  0.00  0.00    -0.090 HD
ENDBRANCH   5  18
BRANCH   3  22
ATOM     22  C   LIG d   1     -11.497  76.941 119.220  0.00  0.00     0.382 C 
ATOM     23  O   LIG d   1     -12.281  76.639 118.289  0.00  0.00    -0.241 OA
ATOM     24  O   LIG d   1     -11.906  76.922 120.397  0.00  0.00    -0.241 OA
ENDBRANCH   3  22
TORSDOF 7
ENDMDL
MODEL 9
REMARK VINA RESULT:      -5.0      2.209      4.658
REMARK  7 active torsions:
REMARK  status: ('A' for Active; 'I' for Inactive)
REMARK    1  A    between atoms: C_2  and  C_3 
REMARK    2  A    between atoms: C_3  and  O_6 
REMARK    3  A    between atoms: C_3  and  C_4 
REMARK    4  A    between atoms: C_7  and  O_6 
REMARK    5  A    between atoms: C_9  and  C_10 
REMARK    6  A    between atoms: N_15  and  C_14 
REMARK    7  A    between atoms: N_20  and  C_19 
REMARK       I    between atoms: C_22  and  N_20 
ROOT
ATOM      1  C   LIG d   1      -7.466  76.875 116.968  0.00  0.00     0.161 C 
ATOM      2  C   LIG d   1      -8.818  76.747 117.329  0.00  0.00     0.016 C 
ATOM      3  C   LIG d   1      -9.480  75.503 117.438  0.00  0.00     0.038 C 
ATOM      4  C   LIG d   1      -8.791  74.285 117.340  0.00  0.00     0.028 C 
ATOM      5  C   LIG d   1      -7.535  74.367 116.480  0.00  0.00    -0.047 C 
ATOM      6  C   LIG d   1      -6.670  75.553 116.966  0.00  0.00     0.091 C 
ENDROOT
BRANCH   1   7
ATOM      7  O   LIG d   1      -6.823  77.845 117.818  0.00  0.00    -0.368 OA
BRANCH   7   8
ATOM      8  C   LIG d   1      -6.583  79.147 117.230  0.00  0.00     0.119 C 
BRANCH   8   9
ATOM      9  C   LIG d   1      -5.182  79.606 117.677  0.00  0.00     0.028 C 
ATOM     10  C   LIG d   1      -4.069  79.075 116.757  0.00  0.00     0.006 C 
ENDBRANCH   8   9
BRANCH   8  11
ATOM     11  C   LIG d   1      -7.550  80.197 117.786  0.00  0.00     0.028 C 
ATOM     12  C   LIG d   1      -7.080  81.637 117.525  0.00  0.00     0.006 C 
ENDBRANCH   8  11
ENDBRANCH   7   8
ENDBRANCH   1   7
BRANCH   6  13
ATOM     13  N   LIG d   1      -5.462  75.756 116.125  0.00  0.00    -0.311 N 
ATOM     14  C   LIG d   1      -5.509  76.201 114.870  0.00  0.00     0.210 C 
ATOM     15  C   LIG d   1      -4.149  76.320 114.175  0.00  0.00     0.109 C 
ATOM     16  O   LIG d   1      -6.545  76.539 114.278  0.00  0.00    -0.276 OA
ATOM     17  H   LIG d   1      -4.577  75.536 116.537  0.00  0.00     0.149 HD
ENDBRANCH   6  13
BRANCH   5  18
ATOM     18  N   LIG d   1      -6.842  73.069 116.576  0.00  0.00     0.381 N 
ATOM     19  H   LIG d   1      -7.433  72.343 116.223  0.00  0.00    -0.090 HD
ATOM     20  H   LIG d   1      -6.649  72.875 117.543  0.00  0.00    -0.090 HD
ATOM     21  H   LIG d   1      -5.991  73.096 116.059  0.00  0.00    -0.090 HD
ENDBRANCH   5  18
BRANCH   3  22
ATOM     22  C   LIG d   1     -10.856  75.469 117.607  0.00  0.00     0.382 C 
ATOM     23  O   LIG d   1     -11.518  74.495 117.174  0.00  0.00    -0.241 OA
ATOM     24  O   LIG d   1     -11.449  76.422 118.149  0.00  0.00    -0.241 OA
ENDBRANCH   3  22
TORSDOF 7
ENDMDL
