MODEL 1
REMARK VINA RESULT:      -5.6      0.000      0.000
REMARK  7 active torsions:
REMARK  status: ('A' for Active; 'I' for Inactive)
REMARK    1  A    between atoms: C_2  and  C_3 
REMARK    2  A    between atoms: C_3  and  O_6 
REMARK    3  A    between atoms: C_3  and  C_4 
REMARK    4  A    between atoms: C_7  and  O_6 
REMARK    5  A    between atoms: C_9  and  C_10 
REMARK    6  A    between atoms: N_15  and  C_14 
REMARK    7  A    between atoms: N_20  and  C_19 
REMARK       I    between atoms: C_22  and  N_20 
ROOT
ATOM      1  C   LIG d   1      -4.005  91.440 117.869  0.00  0.00     0.161 C 
ATOM      2  C   LIG d   1      -4.556  90.714 116.801  0.00  0.00     0.016 C 
ATOM      3  C   LIG d   1      -5.760  91.075 116.153  0.00  0.00     0.038 C 
ATOM      4  C   LIG d   1      -6.419  92.281 116.433  0.00  0.00     0.028 C 
ATOM      5  C   LIG d   1      -6.174  92.791 117.849  0.00  0.00    -0.047 C 
ATOM      6  C   LIG d   1      -4.651  92.820 118.115  0.00  0.00     0.091 C 
ENDROOT
BRANCH   1   7
ATOM      7  O   LIG d   1      -2.582  91.580 117.683  0.00  0.00    -0.368 OA
BRANCH   7   8
ATOM      8  C   LIG d   1      -1.743  90.853 118.614  0.00  0.00     0.119 C 
BRANCH   8   9
ATOM      9  C   LIG d   1      -0.531  91.747 118.940  0.00  0.00     0.028 C 
ATOM     10  C   LIG d   1      -0.208  92.734 117.806  0.00  0.00     0.006 C 
ENDBRANCH   8   9
BRANCH   8  11
ATOM     11  C   LIG d   1      -1.157  89.594 117.970  0.00  0.00     0.028 C 
ATOM     12  C   LIG d   1      -1.998  88.337 118.245  0.00  0.00     0.006 C 
ENDBRANCH   8  11
ENDBRANCH   7   8
ENDBRANCH   1   7
BRANCH   6  13
ATOM     13  N   LIG d   1      -4.326  93.227 119.507  0.00  0.00    -0.311 N 
ATOM     14  C   LIG d   1      -3.414  94.150 119.807  0.00  0.00     0.210 C 
ATOM     15  C   LIG d   1      -3.220  94.405 121.305  0.00  0.00     0.109 C 
ATOM     16  O   LIG d   1      -2.769  94.804 118.973  0.00  0.00    -0.276 OA
ATOM     17  H   LIG d   1      -4.825  92.769 120.244  0.00  0.00     0.149 HD
ENDBRANCH   6  13
BRANCH   5  18
ATOM     18  N   LIG d   1      -6.805  94.120 117.960  0.00  0.00     0.381 N 
ATOM     19  H   LIG d   1      -7.739  94.082 117.603  0.00  0.00    -0.090 HD
ATOM     20  H   LIG d   1      -6.282  94.775 117.406  0.00  0.00    -0.090 HD
ATOM     21  H   LIG d   1      -6.817  94.413 118.912  0.00  0.00    -0.090 HD
ENDBRANCH   5  18
BRANCH   3  22
ATOM     22  C   LIG d   1      -6.337  90.205 115.241  0.00  0.00     0.382 C 
ATOM     23  O   LIG d   1      -5.703  89.196 114.848  0.00  0.00    -0.241 OA
ATOM     24  O   LIG d   1      -7.467  90.439 114.772  0.00  0.00    -0.241 OA
ENDBRANCH   3  22
TORSDOF 7
ENDMDL
MODEL 2
REMARK VINA RESULT:      -5.2     13.327     16.195
REMARK  7 active torsions:
REMARK  status: ('A' for Active; 'I' for Inactive)
REMARK    1  A    between atoms: C_2  and  C_3 
REMARK    2  A    between atoms: C_3  and  O_6 
REMARK    3  A    between atoms: C_3  and  C_4 
REMARK    4  A    between atoms: C_7  and  O_6 
REMARK    5  A    between atoms: C_9  and  C_10 
REMARK    6  A    between atoms: N_15  and  C_14 
REMARK    7  A    between atoms: N_20  and  C_19 
REMARK       I    between atoms: C_22  and  N_20 
ROOT
ATOM      1  C   LIG d   1      -3.875  77.076 115.575  0.00  0.00     0.161 C 
ATOM      2  C   LIG d   1      -2.843  76.147 115.364  0.00  0.00     0.016 C 
ATOM      3  C   LIG d   1      -2.036  75.631 116.403  0.00  0.00     0.038 C 
ATOM      4  C   LIG d   1      -2.306  75.896 117.754  0.00  0.00     0.028 C 
ATOM      5  C   LIG d   1      -3.020  77.225 117.979  0.00  0.00    -0.047 C 
ATOM      6  C   LIG d   1      -4.258  77.292 117.054  0.00  0.00     0.091 C 
ENDROOT
BRANCH   1   7
ATOM      7  O   LIG d   1      -5.036  76.700 114.808  0.00  0.00    -0.368 OA
BRANCH   7   8
ATOM      8  C   LIG d   1      -5.917  75.726 115.420  0.00  0.00     0.119 C 
BRANCH   8   9
ATOM      9  C   LIG d   1      -5.700  74.385 114.693  0.00  0.00     0.028 C 
ATOM     10  C   LIG d   1      -6.057  73.176 115.574  0.00  0.00     0.006 C 
ENDBRANCH   8   9
BRANCH   8  11
ATOM     11  C   LIG d   1      -7.388  76.081 115.185  0.00  0.00     0.028 C 
ATOM     12  C   LIG d   1      -8.221  76.054 116.477  0.00  0.00     0.006 C 
ENDBRANCH   8  11
ENDBRANCH   7   8
ENDBRANCH   1   7
BRANCH   6  13
ATOM     13  N   LIG d   1      -4.966  78.595 117.150  0.00  0.00    -0.311 N 
ATOM     14  C   LIG d   1      -5.992  78.813 117.971  0.00  0.00     0.210 C 
ATOM     15  C   LIG d   1      -6.591  80.222 117.897  0.00  0.00     0.109 C 
ATOM     16  O   LIG d   1      -6.442  77.985 118.777  0.00  0.00    -0.276 OA
ATOM     17  H   LIG d   1      -4.646  79.333 116.554  0.00  0.00     0.149 HD
ENDBRANCH   6  13
BRANCH   5  18
ATOM     18  N   LIG d   1      -3.363  77.310 119.411  0.00  0.00     0.381 N 
ATOM     19  H   LIG d   1      -3.910  76.515 119.676  0.00  0.00    -0.090 HD
ATOM     20  H   LIG d   1      -3.914  78.136 119.565  0.00  0.00    -0.090 HD
ATOM     21  H   LIG d   1      -2.532  77.349 119.959  0.00  0.00    -0.090 HD
ENDBRANCH   5  18
BRANCH   3  22
ATOM     22  C   LIG d   1      -0.918  74.871 116.093  0.00  0.00     0.382 C 
ATOM     23  O   LIG d   1      -0.932  74.117 115.090  0.00  0.00    -0.241 OA
ATOM     24  O   LIG d   1       0.087  74.895 116.828  0.00  0.00    -0.241 OA
ENDBRANCH   3  22
TORSDOF 7
ENDMDL
MODEL 3
REMARK VINA RESULT:      -5.2     12.204     14.512
REMARK  7 active torsions:
REMARK  status: ('A' for Active; 'I' for Inactive)
REMARK    1  A    between atoms: C_2  and  C_3 
REMARK    2  A    between atoms: C_3  and  O_6 
REMARK    3  A    between atoms: C_3  and  C_4 
REMARK    4  A    between atoms: C_7  and  O_6 
REMARK    5  A    between atoms: C_9  and  C_10 
REMARK    6  A    between atoms: N_15  and  C_14 
REMARK    7  A    between atoms: N_20  and  C_19 
REMARK       I    between atoms: C_22  and  N_20 
ROOT
ATOM      1  C   LIG d   1      -4.927  77.738 116.659  0.00  0.00     0.161 C 
ATOM      2  C   LIG d   1      -4.963  76.525 115.950  0.00  0.00     0.016 C 
ATOM      3  C   LIG d   1      -6.136  75.752 115.789  0.00  0.00     0.038 C 
ATOM      4  C   LIG d   1      -7.393  76.218 116.201  0.00  0.00     0.028 C 
ATOM      5  C   LIG d   1      -7.324  77.201 117.365  0.00  0.00    -0.047 C 
ATOM      6  C   LIG d   1      -6.311  78.317 117.020  0.00  0.00     0.091 C 
ENDROOT
BRANCH   1   7
ATOM      7  O   LIG d   1      -4.153  78.709 115.928  0.00  0.00    -0.368 OA
BRANCH   7   8
ATOM      8  C   LIG d   1      -3.012  78.195 115.197  0.00  0.00     0.119 C 
BRANCH   8   9
ATOM      9  C   LIG d   1      -1.768  78.386 116.086  0.00  0.00     0.028 C 
ATOM     10  C   LIG d   1      -1.283  77.065 116.707  0.00  0.00     0.006 C 
ENDBRANCH   8   9
BRANCH   8  11
ATOM     11  C   LIG d   1      -2.740  79.021 113.936  0.00  0.00     0.028 C 
ATOM     12  C   LIG d   1      -1.285  78.910 113.453  0.00  0.00     0.006 C 
ENDBRANCH   8  11
ENDBRANCH   7   8
ENDBRANCH   1   7
BRANCH   6  13
ATOM     13  N   LIG d   1      -6.120  79.275 118.140  0.00  0.00    -0.311 N 
ATOM     14  C   LIG d   1      -6.770  80.433 118.233  0.00  0.00     0.210 C 
ATOM     15  C   LIG d   1      -6.409  81.281 119.457  0.00  0.00     0.109 C 
ATOM     16  O   LIG d   1      -7.634  80.826 117.435  0.00  0.00    -0.276 OA
ATOM     17  H   LIG d   1      -5.459  79.022 118.849  0.00  0.00     0.149 HD
ENDBRANCH   6  13
BRANCH   5  18
ATOM     18  N   LIG d   1      -8.688  77.710 117.600  0.00  0.00     0.381 N 
ATOM     19  H   LIG d   1      -9.267  77.506 116.810  0.00  0.00    -0.090 HD
ATOM     20  H   LIG d   1      -8.647  78.708 117.712  0.00  0.00    -0.090 HD
ATOM     21  H   LIG d   1      -9.071  77.292 118.419  0.00  0.00    -0.090 HD
ENDBRANCH   5  18
BRANCH   3  22
ATOM     22  C   LIG d   1      -6.051  74.480 115.245  0.00  0.00     0.382 C 
ATOM     23  O   LIG d   1      -6.596  73.511 115.827  0.00  0.00    -0.241 OA
ATOM     24  O   LIG d   1      -5.398  74.280 114.204  0.00  0.00    -0.241 OA
ENDBRANCH   3  22
TORSDOF 7
ENDMDL
MODEL 4
REMARK VINA RESULT:      -5.0      2.310      4.448
REMARK  7 active torsions:
REMARK  status: ('A' for Active; 'I' for Inactive)
REMARK    1  A    between atoms: C_2  and  C_3 
REMARK    2  A    between atoms: C_3  and  O_6 
REMARK    3  A    between atoms: C_3  and  C_4 
REMARK    4  A    between atoms: C_7  and  O_6 
REMARK    5  A    between atoms: C_9  and  C_10 
REMARK    6  A    between atoms: N_15  and  C_14 
REMARK    7  A    between atoms: N_20  and  C_19 
REMARK       I    between atoms: C_22  and  N_20 
ROOT
ATOM      1  C   LIG d   1      -4.327  92.998 119.038  0.00  0.00     0.161 C 
ATOM      2  C   LIG d   1      -5.404  92.718 118.181  0.00  0.00     0.016 C 
ATOM      3  C   LIG d   1      -5.366  91.717 117.183  0.00  0.00     0.038 C 
ATOM      4  C   LIG d   1      -4.293  90.820 117.073  0.00  0.00     0.028 C 
ATOM      5  C   LIG d   1      -2.974  91.389 117.585  0.00  0.00    -0.047 C 
ATOM      6  C   LIG d   1      -3.189  91.956 119.007  0.00  0.00     0.091 C 
ENDROOT
BRANCH   1   7
ATOM      7  O   LIG d   1      -4.806  93.175 120.385  0.00  0.00    -0.368 OA
BRANCH   7   8
ATOM      8  C   LIG d   1      -4.758  94.526 120.906  0.00  0.00     0.119 C 
BRANCH   8   9
ATOM      9  C   LIG d   1      -6.200  95.069 120.922  0.00  0.00     0.028 C 
ATOM     10  C   LIG d   1      -6.495  95.985 119.723  0.00  0.00     0.006 C 
ENDBRANCH   8   9
BRANCH   8  11
ATOM     11  C   LIG d   1      -3.984  95.458 119.968  0.00  0.00     0.028 C 
ATOM     12  C   LIG d   1      -2.700  96.013 120.604  0.00  0.00     0.006 C 
ENDBRANCH   8  11
ENDBRANCH   7   8
ENDBRANCH   1   7
BRANCH   6  13
ATOM     13  N   LIG d   1      -1.968  92.607 119.548  0.00  0.00    -0.311 N 
ATOM     14  C   LIG d   1      -1.083  91.979 120.320  0.00  0.00     0.210 C 
ATOM     15  C   LIG d   1       0.095  92.840 120.787  0.00  0.00     0.109 C 
ATOM     16  O   LIG d   1      -1.144  90.781 120.636  0.00  0.00    -0.276 OA
ATOM     17  H   LIG d   1      -1.823  93.570 119.315  0.00  0.00     0.149 HD
ENDBRANCH   6  13
BRANCH   5  18
ATOM     18  N   LIG d   1      -1.974  90.305 117.539  0.00  0.00     0.381 N 
ATOM     19  H   LIG d   1      -2.435  89.418 117.570  0.00  0.00    -0.090 HD
ATOM     20  H   LIG d   1      -1.378  90.379 118.345  0.00  0.00    -0.090 HD
ATOM     21  H   LIG d   1      -1.431  90.377 116.707  0.00  0.00    -0.090 HD
ENDBRANCH   5  18
BRANCH   3  22
ATOM     22  C   LIG d   1      -6.393  91.633 116.255  0.00  0.00     0.382 C 
ATOM     23  O   LIG d   1      -7.340  90.831 116.440  0.00  0.00    -0.241 OA
ATOM     24  O   LIG d   1      -6.361  92.316 115.214  0.00  0.00    -0.241 OA
ENDBRANCH   3  22
TORSDOF 7
ENDMDL
MODEL 5
REMARK VINA RESULT:      -5.0     13.224     15.068
REMARK  7 active torsions:
REMARK  status: ('A' for Active; 'I' for Inactive)
REMARK    1  A    between atoms: C_2  and  C_3 
REMARK    2  A    between atoms: C_3  and  O_6 
REMARK    3  A    between atoms: C_3  and  C_4 
REMARK    4  A    between atoms: C_7  and  O_6 
REMARK    5  A    between atoms: C_9  and  C_10 
REMARK    6  A    between atoms: N_15  and  C_14 
REMARK    7  A    between atoms: N_20  and  C_19 
REMARK       I    between atoms: C_22  and  N_20 
ROOT
ATOM      1  C   LIG d   1      -5.765  78.444 117.257  0.00  0.00     0.161 C 
ATOM      2  C   LIG d   1      -4.500  77.920 117.574  0.00  0.00     0.016 C 
ATOM      3  C   LIG d   1      -4.028  77.776 118.899  0.00  0.00     0.038 C 
ATOM      4  C   LIG d   1      -4.852  78.008 120.010  0.00  0.00     0.028 C 
ATOM      5  C   LIG d   1      -5.963  79.017 119.740  0.00  0.00    -0.047 C 
ATOM      6  C   LIG d   1      -6.720  78.598 118.459  0.00  0.00     0.091 C 
ENDROOT
BRANCH   1   7
ATOM      7  O   LIG d   1      -6.380  77.646 116.227  0.00  0.00    -0.368 OA
BRANCH   7   8
ATOM      8  C   LIG d   1      -6.084  76.228 116.257  0.00  0.00     0.119 C 
BRANCH   8   9
ATOM      9  C   LIG d   1      -5.781  75.788 114.812  0.00  0.00     0.028 C 
ATOM     10  C   LIG d   1      -5.602  74.265 114.687  0.00  0.00     0.006 C 
ENDBRANCH   8   9
BRANCH   8  11
ATOM     11  C   LIG d   1      -7.309  75.412 116.681  0.00  0.00     0.028 C 
ATOM     12  C   LIG d   1      -8.635  76.132 116.387  0.00  0.00     0.006 C 
ENDBRANCH   8  11
ENDBRANCH   7   8
ENDBRANCH   1   7
BRANCH   6  13
ATOM     13  N   LIG d   1      -7.770  79.578 118.075  0.00  0.00    -0.311 N 
ATOM     14  C   LIG d   1      -9.050  79.454 118.420  0.00  0.00     0.210 C 
ATOM     15  C   LIG d   1      -9.970  80.565 117.904  0.00  0.00     0.109 C 
ATOM     16  O   LIG d   1      -9.506  78.545 119.132  0.00  0.00    -0.276 OA
ATOM     17  H   LIG d   1      -7.482  80.363 117.524  0.00  0.00     0.149 HD
ENDBRANCH   6  13
BRANCH   5  18
ATOM     18  N   LIG d   1      -6.827  79.060 120.934  0.00  0.00     0.381 N 
ATOM     19  H   LIG d   1      -6.376  79.580 121.660  0.00  0.00    -0.090 HD
ATOM     20  H   LIG d   1      -6.973  78.121 121.263  0.00  0.00    -0.090 HD
ATOM     21  H   LIG d   1      -7.701  79.481 120.708  0.00  0.00    -0.090 HD
ENDBRANCH   5  18
BRANCH   3  22
ATOM     22  C   LIG d   1      -2.702  77.434 119.122  0.00  0.00     0.382 C 
ATOM     23  O   LIG d   1      -2.423  76.434 119.827  0.00  0.00    -0.241 OA
ATOM     24  O   LIG d   1      -1.782  78.138 118.665  0.00  0.00    -0.241 OA
ENDBRANCH   3  22
TORSDOF 7
ENDMDL
MODEL 6
REMARK VINA RESULT:      -4.9     12.102     13.993
REMARK  7 active torsions:
REMARK  status: ('A' for Active; 'I' for Inactive)
REMARK    1  A    between atoms: C_2  and  C_3 
REMARK    2  A    between atoms: C_3  and  O_6 
REMARK    3  A    between atoms: C_3  and  C_4 
REMARK    4  A    between atoms: C_7  and  O_6 
REMARK    5  A    between atoms: C_9  and  C_10 
REMARK    6  A    between atoms: N_15  and  C_14 
REMARK    7  A    between atoms: N_20  and  C_19 
REMARK       I    between atoms: C_22  and  N_20 
ROOT
ATOM      1  C   LIG d   1      -6.507  78.317 117.586  0.00  0.00     0.161 C 
ATOM      2  C   LIG d   1      -7.871  78.651 117.543  0.00  0.00     0.016 C 
ATOM      3  C   LIG d   1      -8.416  79.783 118.192  0.00  0.00     0.038 C 
ATOM      4  C   LIG d   1      -7.604  80.747 118.807  0.00  0.00     0.028 C 
ATOM      5  C   LIG d   1      -6.276  80.190 119.308  0.00  0.00    -0.047 C 
ATOM      6  C   LIG d   1      -5.590  79.417 118.159  0.00  0.00     0.091 C 
ENDROOT
BRANCH   1   7
ATOM      7  O   LIG d   1      -6.059  77.923 116.274  0.00  0.00    -0.368 OA
BRANCH   7   8
ATOM      8  C   LIG d   1      -5.712  76.526 116.112  0.00  0.00     0.119 C 
BRANCH   8   9
ATOM      9  C   LIG d   1      -4.508  76.456 115.152  0.00  0.00     0.028 C 
ATOM     10  C   LIG d   1      -3.356  75.609 115.717  0.00  0.00     0.006 C 
ENDBRANCH   8   9
BRANCH   8  11
ATOM     11  C   LIG d   1      -6.833  75.751 115.412  0.00  0.00     0.028 C 
ATOM     12  C   LIG d   1      -7.812  75.098 116.401  0.00  0.00     0.006 C 
ENDBRANCH   8  11
ENDBRANCH   7   8
ENDBRANCH   1   7
BRANCH   6  13
ATOM     13  N   LIG d   1      -4.324  78.768 118.589  0.00  0.00    -0.311 N 
ATOM     14  C   LIG d   1      -3.218  78.756 117.847  0.00  0.00     0.210 C 
ATOM     15  C   LIG d   1      -2.030  78.015 118.469  0.00  0.00     0.109 C 
ATOM     16  O   LIG d   1      -3.098  79.317 116.747  0.00  0.00    -0.276 OA
ATOM     17  H   LIG d   1      -4.323  78.317 119.482  0.00  0.00     0.149 HD
ENDBRANCH   6  13
BRANCH   5  18
ATOM     18  N   LIG d   1      -5.474  81.326 119.801  0.00  0.00     0.381 N 
ATOM     19  H   LIG d   1      -5.924  82.187 119.563  0.00  0.00    -0.090 HD
ATOM     20  H   LIG d   1      -4.574  81.307 119.354  0.00  0.00    -0.090 HD
ATOM     21  H   LIG d   1      -5.363  81.262 120.789  0.00  0.00    -0.090 HD
ENDBRANCH   5  18
BRANCH   3  22
ATOM     22  C   LIG d   1      -9.792  79.937 118.264  0.00  0.00     0.382 C 
ATOM     23  O   LIG d   1     -10.531  78.930 118.382  0.00  0.00    -0.241 OA
ATOM     24  O   LIG d   1     -10.307  81.067 118.168  0.00  0.00    -0.241 OA
ENDBRANCH   3  22
TORSDOF 7
ENDMDL
MODEL 7
REMARK VINA RESULT:      -4.9      2.313      4.291
REMARK  7 active torsions:
REMARK  status: ('A' for Active; 'I' for Inactive)
REMARK    1  A    between atoms: C_2  and  C_3 
REMARK    2  A    between atoms: C_3  and  O_6 
REMARK    3  A    between atoms: C_3  and  C_4 
REMARK    4  A    between atoms: C_7  and  O_6 
REMARK    5  A    between atoms: C_9  and  C_10 
REMARK    6  A    between atoms: N_15  and  C_14 
REMARK    7  A    between atoms: N_20  and  C_19 
REMARK       I    between atoms: C_22  and  N_20 
ROOT
ATOM      1  C   LIG d   1      -3.771  93.004 120.172  0.00  0.00     0.161 C 
ATOM      2  C   LIG d   1      -2.968  92.019 119.573  0.00  0.00     0.016 C 
ATOM      3  C   LIG d   1      -3.287  91.396 118.345  0.00  0.00     0.038 C 
ATOM      4  C   LIG d   1      -4.362  91.826 117.553  0.00  0.00     0.028 C 
ATOM      5  C   LIG d   1      -5.487  92.470 118.356  0.00  0.00    -0.047 C 
ATOM      6  C   LIG d   1      -4.889  93.565 119.269  0.00  0.00     0.091 C 
ENDROOT
BRANCH   1   7
ATOM      7  O   LIG d   1      -2.944  94.074 120.668  0.00  0.00    -0.368 OA
BRANCH   7   8
ATOM      8  C   LIG d   1      -2.589  95.102 119.711  0.00  0.00     0.119 C 
BRANCH   8   9
ATOM      9  C   LIG d   1      -1.051  95.165 119.647  0.00  0.00     0.028 C 
ATOM     10  C   LIG d   1      -0.487  94.482 118.390  0.00  0.00     0.006 C 
ENDBRANCH   8   9
BRANCH   8  11
ATOM     11  C   LIG d   1      -3.032  96.488 120.190  0.00  0.00     0.028 C 
ATOM     12  C   LIG d   1      -3.331  97.452 119.031  0.00  0.00     0.006 C 
ENDBRANCH   8  11
ENDBRANCH   7   8
ENDBRANCH   1   7
BRANCH   6  13
ATOM     13  N   LIG d   1      -5.910  94.188 120.151  0.00  0.00    -0.311 N 
ATOM     14  C   LIG d   1      -6.611  95.268 119.811  0.00  0.00     0.210 C 
ATOM     15  C   LIG d   1      -7.598  95.759 120.875  0.00  0.00     0.109 C 
ATOM     16  O   LIG d   1      -6.532  95.848 118.718  0.00  0.00    -0.276 OA
ATOM     17  H   LIG d   1      -6.061  93.763 121.045  0.00  0.00     0.149 HD
ENDBRANCH   6  13
BRANCH   5  18
ATOM     18  N   LIG d   1      -6.477  92.994 117.396  0.00  0.00     0.381 N 
ATOM     19  H   LIG d   1      -6.445  92.460 116.551  0.00  0.00    -0.090 HD
ATOM     20  H   LIG d   1      -6.244  93.947 117.176  0.00  0.00    -0.090 HD
ATOM     21  H   LIG d   1      -7.391  92.951 117.790  0.00  0.00    -0.090 HD
ENDBRANCH   5  18
BRANCH   3  22
ATOM     22  C   LIG d   1      -2.550  90.302 117.917  0.00  0.00     0.382 C 
ATOM     23  O   LIG d   1      -3.067  89.159 117.916  0.00  0.00    -0.241 OA
ATOM     24  O   LIG d   1      -1.360  90.438 117.574  0.00  0.00    -0.241 OA
ENDBRANCH   3  22
TORSDOF 7
ENDMDL
MODEL 8
REMARK VINA RESULT:      -4.8     13.176     15.487
REMARK  7 active torsions:
REMARK  status: ('A' for Active; 'I' for Inactive)
REMARK    1  A    between atoms: C_2  and  C_3 
REMARK    2  A    between atoms: C_3  and  O_6 
REMARK    3  A    between atoms: C_3  and  C_4 
REMARK    4  A    between atoms: C_7  and  O_6 
REMARK    5  A    between atoms: C_9  and  C_10 
REMARK    6  A    between atoms: N_15  and  C_14 
REMARK    7  A    between atoms: N_20  and  C_19 
REMARK       I    between atoms: C_22  and  N_20 
ROOT
ATOM      1  C   LIG d   1      -2.792  76.931 117.219  0.00  0.00     0.161 C 
ATOM      2  C   LIG d   1      -3.742  76.141 116.550  0.00  0.00     0.016 C 
ATOM      3  C   LIG d   1      -4.129  76.359 115.207  0.00  0.00     0.038 C 
ATOM      4  C   LIG d   1      -3.477  77.294 114.390  0.00  0.00     0.028 C 
ATOM      5  C   LIG d   1      -2.863  78.454 115.168  0.00  0.00    -0.047 C 
ATOM      6  C   LIG d   1      -1.990  77.885 116.310  0.00  0.00     0.091 C 
ENDROOT
BRANCH   1   7
ATOM      7  O   LIG d   1      -1.899  76.088 117.972  0.00  0.00    -0.368 OA
BRANCH   7   8
ATOM      8  C   LIG d   1      -1.570  74.811 117.372  0.00  0.00     0.119 C 
BRANCH   8   9
ATOM      9  C   LIG d   1      -1.559  73.759 118.499  0.00  0.00     0.028 C 
ATOM     10  C   LIG d   1      -1.171  74.361 119.860  0.00  0.00     0.006 C 
ENDBRANCH   8   9
BRANCH   8  11
ATOM     11  C   LIG d   1      -0.148  74.812 116.805  0.00  0.00     0.028 C 
ATOM     12  C   LIG d   1      -0.090  74.351 115.340  0.00  0.00     0.006 C 
ENDBRANCH   8  11
ENDBRANCH   7   8
ENDBRANCH   1   7
BRANCH   6  13
ATOM     13  N   LIG d   1      -1.418  78.953 117.171  0.00  0.00    -0.311 N 
ATOM     14  C   LIG d   1      -0.113  79.096 117.393  0.00  0.00     0.210 C 
ATOM     15  C   LIG d   1       0.261  80.250 118.329  0.00  0.00     0.109 C 
ATOM     16  O   LIG d   1       0.773  78.397 116.878  0.00  0.00    -0.276 OA
ATOM     17  H   LIG d   1      -2.064  79.584 117.604  0.00  0.00     0.149 HD
ENDBRANCH   6  13
BRANCH   5  18
ATOM     18  N   LIG d   1      -2.099  79.277 114.211  0.00  0.00     0.381 N 
ATOM     19  H   LIG d   1      -1.147  79.346 114.508  0.00  0.00    -0.090 HD
ATOM     20  H   LIG d   1      -2.492  80.201 114.192  0.00  0.00    -0.090 HD
ATOM     21  H   LIG d   1      -2.142  78.871 113.302  0.00  0.00    -0.090 HD
ENDBRANCH   5  18
BRANCH   3  22
ATOM     22  C   LIG d   1      -5.207  75.663 114.682  0.00  0.00     0.382 C 
ATOM     23  O   LIG d   1      -5.423  74.479 115.036  0.00  0.00    -0.241 OA
ATOM     24  O   LIG d   1      -5.941  76.190 113.824  0.00  0.00    -0.241 OA
ENDBRANCH   3  22
TORSDOF 7
ENDMDL
MODEL 9
REMARK VINA RESULT:      -4.7     12.935     14.834
REMARK  7 active torsions:
REMARK  status: ('A' for Active; 'I' for Inactive)
REMARK    1  A    between atoms: C_2  and  C_3 
REMARK    2  A    between atoms: C_3  and  O_6 
REMARK    3  A    between atoms: C_3  and  C_4 
REMARK    4  A    between atoms: C_7  and  O_6 
REMARK    5  A    between atoms: C_9  and  C_10 
REMARK    6  A    between atoms: N_15  and  C_14 
REMARK    7  A    between atoms: N_20  and  C_19 
REMARK       I    between atoms: C_22  and  N_20 
ROOT
ATOM      1  C   LIG d   1      -5.356  77.455 116.877  0.00  0.00     0.161 C 
ATOM      2  C   LIG d   1      -6.709  77.426 117.252  0.00  0.00     0.016 C 
ATOM      3  C   LIG d   1      -7.273  78.313 118.198  0.00  0.00     0.038 C 
ATOM      4  C   LIG d   1      -6.551  79.394 118.724  0.00  0.00     0.028 C 
ATOM      5  C   LIG d   1      -5.045  79.157 118.757  0.00  0.00    -0.047 C 
ATOM      6  C   LIG d   1      -4.578  78.698 117.357  0.00  0.00     0.091 C 
ENDROOT
BRANCH   1   7
ATOM      7  O   LIG d   1      -5.243  77.315 115.447  0.00  0.00    -0.368 OA
BRANCH   7   8
ATOM      8  C   LIG d   1      -4.717  76.052 114.970  0.00  0.00     0.119 C 
BRANCH   8   9
ATOM      9  C   LIG d   1      -5.914  75.194 114.515  0.00  0.00     0.028 C 
ATOM     10  C   LIG d   1      -6.036  73.886 115.314  0.00  0.00     0.006 C 
ENDBRANCH   8   9
BRANCH   8  11
ATOM     11  C   LIG d   1      -4.058  75.259 116.103  0.00  0.00     0.028 C 
ATOM     12  C   LIG d   1      -2.573  74.963 115.838  0.00  0.00     0.006 C 
ENDBRANCH   8  11
ENDBRANCH   7   8
ENDBRANCH   1   7
BRANCH   6  13
ATOM     13  N   LIG d   1      -3.130  78.363 117.323  0.00  0.00    -0.311 N 
ATOM     14  C   LIG d   1      -2.336  78.647 116.292  0.00  0.00     0.210 C 
ATOM     15  C   LIG d   1      -0.881  78.197 116.454  0.00  0.00     0.109 C 
ATOM     16  O   LIG d   1      -2.692  79.256 115.272  0.00  0.00    -0.276 OA
ATOM     17  H   LIG d   1      -2.752  77.895 118.123  0.00  0.00     0.149 HD
ENDBRANCH   6  13
BRANCH   5  18
ATOM     18  N   LIG d   1      -4.405  80.411 119.198  0.00  0.00     0.381 N 
ATOM     19  H   LIG d   1      -5.051  81.170 119.109  0.00  0.00    -0.090 HD
ATOM     20  H   LIG d   1      -3.615  80.599 118.606  0.00  0.00    -0.090 HD
ATOM     21  H   LIG d   1      -4.108  80.328 120.145  0.00  0.00    -0.090 HD
ENDBRANCH   5  18
BRANCH   3  22
ATOM     22  C   LIG d   1      -8.564  78.098 118.658  0.00  0.00     0.382 C 
ATOM     23  O   LIG d   1      -8.751  77.622 119.803  0.00  0.00    -0.241 OA
ATOM     24  O   LIG d   1      -9.543  78.333 117.924  0.00  0.00    -0.241 OA
ENDBRANCH   3  22
TORSDOF 7
ENDMDL
