MODEL 1
REMARK VINA RESULT:      -5.8      0.000      0.000
REMARK  7 active torsions:
REMARK  status: ('A' for Active; 'I' for Inactive)
REMARK    1  A    between atoms: C_2  and  C_3 
REMARK    2  A    between atoms: C_3  and  O_6 
REMARK    3  A    between atoms: C_3  and  C_4 
REMARK    4  A    between atoms: C_7  and  O_6 
REMARK    5  A    between atoms: C_9  and  C_10 
REMARK    6  A    between atoms: N_15  and  C_14 
REMARK    7  A    between atoms: N_20  and  C_19 
REMARK       I    between atoms: C_22  and  N_20 
ROOT
ATOM      1  C   LIG d   1      -7.892  76.108 117.706  0.00  0.00     0.161 C 
ATOM      2  C   LIG d   1      -8.938  76.922 118.171  0.00  0.00     0.016 C 
ATOM      3  C   LIG d   1      -8.830  78.324 118.310  0.00  0.00     0.038 C 
ATOM      4  C   LIG d   1      -7.710  79.031 117.846  0.00  0.00     0.028 C 
ATOM      5  C   LIG d   1      -6.431  78.200 117.835  0.00  0.00    -0.047 C 
ATOM      6  C   LIG d   1      -6.702  76.873 117.090  0.00  0.00     0.091 C 
ENDROOT
BRANCH   1   7
ATOM      7  O   LIG d   1      -8.405  75.141 116.767  0.00  0.00    -0.368 OA
BRANCH   7   8
ATOM      8  C   LIG d   1      -8.366  73.757 117.193  0.00  0.00     0.119 C 
BRANCH   8   9
ATOM      9  C   LIG d   1      -7.523  72.980 116.164  0.00  0.00     0.028 C 
ATOM     10  C   LIG d   1      -8.062  71.561 115.915  0.00  0.00     0.006 C 
ENDBRANCH   8   9
BRANCH   8  11
ATOM     11  C   LIG d   1      -9.758  73.119 117.142  0.00  0.00     0.028 C 
ATOM     12  C   LIG d   1     -10.884  74.156 117.003  0.00  0.00     0.006 C 
ENDBRANCH   8  11
ENDBRANCH   7   8
ENDBRANCH   1   7
BRANCH   6  13
ATOM     13  N   LIG d   1      -5.526  75.964 117.106  0.00  0.00    -0.311 N 
ATOM     14  C   LIG d   1      -4.648  75.884 116.108  0.00  0.00     0.210 C 
ATOM     15  C   LIG d   1      -3.520  74.868 116.319  0.00  0.00     0.109 C 
ATOM     16  O   LIG d   1      -4.678  76.579 115.082  0.00  0.00    -0.276 OA
ATOM     17  H   LIG d   1      -5.407  75.386 117.915  0.00  0.00     0.149 HD
ENDBRANCH   6  13
BRANCH   5  18
ATOM     18  N   LIG d   1      -5.377  79.014 117.202  0.00  0.00     0.381 N 
ATOM     19  H   LIG d   1      -4.731  79.332 117.896  0.00  0.00    -0.090 HD
ATOM     20  H   LIG d   1      -5.800  79.819 116.773  0.00  0.00    -0.090 HD
ATOM     21  H   LIG d   1      -4.898  78.476 116.513  0.00  0.00    -0.090 HD
ENDBRANCH   5  18
BRANCH   3  22
ATOM     22  C   LIG d   1      -9.834  79.031 118.955  0.00  0.00     0.382 C 
ATOM     23  O   LIG d   1      -9.997  80.251 118.712  0.00  0.00    -0.241 OA
ATOM     24  O   LIG d   1     -10.549  78.474 119.809  0.00  0.00    -0.241 OA
ENDBRANCH   3  22
TORSDOF 7
ENDMDL
MODEL 2
REMARK VINA RESULT:      -5.7      1.799      4.999
REMARK  7 active torsions:
REMARK  status: ('A' for Active; 'I' for Inactive)
REMARK    1  A    between atoms: C_2  and  C_3 
REMARK    2  A    between atoms: C_3  and  O_6 
REMARK    3  A    between atoms: C_3  and  C_4 
REMARK    4  A    between atoms: C_7  and  O_6 
REMARK    5  A    between atoms: C_9  and  C_10 
REMARK    6  A    between atoms: N_15  and  C_14 
REMARK    7  A    between atoms: N_20  and  C_19 
REMARK       I    between atoms: C_22  and  N_20 
ROOT
ATOM      1  C   LIG d   1      -6.632  75.554 116.230  0.00  0.00     0.161 C 
ATOM      2  C   LIG d   1      -5.413  74.930 115.918  0.00  0.00     0.016 C 
ATOM      3  C   LIG d   1      -4.264  75.013 116.738  0.00  0.00     0.038 C 
ATOM      4  C   LIG d   1      -4.302  75.604 118.009  0.00  0.00     0.028 C 
ATOM      5  C   LIG d   1      -5.371  76.683 118.144  0.00  0.00    -0.047 C 
ATOM      6  C   LIG d   1      -6.725  76.111 117.666  0.00  0.00     0.091 C 
ENDROOT
BRANCH   1   7
ATOM      7  O   LIG d   1      -7.724  74.650 115.971  0.00  0.00    -0.368 OA
BRANCH   7   8
ATOM      8  C   LIG d   1      -7.781  73.465 116.802  0.00  0.00     0.119 C 
BRANCH   8   9
ATOM      9  C   LIG d   1      -7.824  72.243 115.864  0.00  0.00     0.028 C 
ATOM     10  C   LIG d   1      -8.677  71.097 116.432  0.00  0.00     0.006 C 
ENDBRANCH   8   9
BRANCH   8  11
ATOM     11  C   LIG d   1      -9.085  73.407 117.603  0.00  0.00     0.028 C 
ATOM     12  C   LIG d   1     -10.156  74.371 117.068  0.00  0.00     0.006 C 
ENDBRANCH   8  11
ENDBRANCH   7   8
ENDBRANCH   1   7
BRANCH   6  13
ATOM     13  N   LIG d   1      -7.809  77.127 117.685  0.00  0.00    -0.311 N 
ATOM     14  C   LIG d   1      -8.631  77.303 118.719  0.00  0.00     0.210 C 
ATOM     15  C   LIG d   1      -9.691  78.392 118.524  0.00  0.00     0.109 C 
ATOM     16  O   LIG d   1      -8.562  76.684 119.791  0.00  0.00    -0.276 OA
ATOM     17  H   LIG d   1      -7.916  77.696 116.868  0.00  0.00     0.149 HD
ENDBRANCH   6  13
BRANCH   5  18
ATOM     18  N   LIG d   1      -5.392  77.117 119.554  0.00  0.00     0.381 N 
ATOM     19  H   LIG d   1      -5.075  76.372 120.142  0.00  0.00    -0.090 HD
ATOM     20  H   LIG d   1      -6.337  77.341 119.811  0.00  0.00    -0.090 HD
ATOM     21  H   LIG d   1      -4.809  77.915 119.674  0.00  0.00    -0.090 HD
ENDBRANCH   5  18
BRANCH   3  22
ATOM     22  C   LIG d   1      -3.050  74.534 116.270  0.00  0.00     0.382 C 
ATOM     23  O   LIG d   1      -2.327  73.827 117.012  0.00  0.00    -0.241 OA
ATOM     24  O   LIG d   1      -2.648  74.838 115.131  0.00  0.00    -0.241 OA
ENDBRANCH   3  22
TORSDOF 7
ENDMDL
MODEL 3
REMARK VINA RESULT:      -5.2      2.177      5.210
REMARK  7 active torsions:
REMARK  status: ('A' for Active; 'I' for Inactive)
REMARK    1  A    between atoms: C_2  and  C_3 
REMARK    2  A    between atoms: C_3  and  O_6 
REMARK    3  A    between atoms: C_3  and  C_4 
REMARK    4  A    between atoms: C_7  and  O_6 
REMARK    5  A    between atoms: C_9  and  C_10 
REMARK    6  A    between atoms: N_15  and  C_14 
REMARK    7  A    between atoms: N_20  and  C_19 
REMARK       I    between atoms: C_22  and  N_20 
ROOT
ATOM      1  C   LIG d   1      -7.777  75.696 117.777  0.00  0.00     0.161 C 
ATOM      2  C   LIG d   1      -8.435  74.457 117.703  0.00  0.00     0.016 C 
ATOM      3  C   LIG d   1      -8.108  73.458 116.758  0.00  0.00     0.038 C 
ATOM      4  C   LIG d   1      -6.993  73.571 115.915  0.00  0.00     0.028 C 
ATOM      5  C   LIG d   1      -6.609  75.015 115.609  0.00  0.00    -0.047 C 
ATOM      6  C   LIG d   1      -6.486  75.794 116.939  0.00  0.00     0.091 C 
ENDROOT
BRANCH   1   7
ATOM      7  O   LIG d   1      -7.507  76.024 119.155  0.00  0.00    -0.368 OA
BRANCH   7   8
ATOM      8  C   LIG d   1      -8.280  77.114 119.714  0.00  0.00     0.119 C 
BRANCH   8   9
ATOM      9  C   LIG d   1      -9.052  77.776 118.556  0.00  0.00     0.028 C 
ATOM     10  C   LIG d   1      -8.698  79.263 118.388  0.00  0.00     0.006 C 
ENDBRANCH   8   9
BRANCH   8  11
ATOM     11  C   LIG d   1      -7.370  78.212 120.274  0.00  0.00     0.028 C 
ATOM     12  C   LIG d   1      -6.028  77.668 120.790  0.00  0.00     0.006 C 
ENDBRANCH   8  11
ENDBRANCH   7   8
ENDBRANCH   1   7
BRANCH   6  13
ATOM     13  N   LIG d   1      -6.195  77.236 116.727  0.00  0.00    -0.311 N 
ATOM     14  C   LIG d   1      -5.104  77.840 117.193  0.00  0.00     0.210 C 
ATOM     15  C   LIG d   1      -5.009  79.336 116.879  0.00  0.00     0.109 C 
ATOM     16  O   LIG d   1      -4.189  77.272 117.809  0.00  0.00    -0.276 OA
ATOM     17  H   LIG d   1      -6.869  77.766 116.210  0.00  0.00     0.149 HD
ENDBRANCH   6  13
BRANCH   5  18
ATOM     18  N   LIG d   1      -5.353  74.989 114.836  0.00  0.00     0.381 N 
ATOM     19  H   LIG d   1      -5.521  74.599 113.930  0.00  0.00    -0.090 HD
ATOM     20  H   LIG d   1      -4.690  74.403 115.313  0.00  0.00    -0.090 HD
ATOM     21  H   LIG d   1      -4.988  75.911 114.746  0.00  0.00    -0.090 HD
ENDBRANCH   5  18
BRANCH   3  22
ATOM     22  C   LIG d   1      -8.926  72.346 116.622  0.00  0.00     0.382 C 
ATOM     23  O   LIG d   1     -10.040  72.314 117.198  0.00  0.00    -0.241 OA
ATOM     24  O   LIG d   1      -8.545  71.357 115.968  0.00  0.00    -0.241 OA
ENDBRANCH   3  22
TORSDOF 7
ENDMDL
MODEL 4
REMARK VINA RESULT:      -5.1      1.940      3.052
REMARK  7 active torsions:
REMARK  status: ('A' for Active; 'I' for Inactive)
REMARK    1  A    between atoms: C_2  and  C_3 
REMARK    2  A    between atoms: C_3  and  O_6 
REMARK    3  A    between atoms: C_3  and  C_4 
REMARK    4  A    between atoms: C_7  and  O_6 
REMARK    5  A    between atoms: C_9  and  C_10 
REMARK    6  A    between atoms: N_15  and  C_14 
REMARK    7  A    between atoms: N_20  and  C_19 
REMARK       I    between atoms: C_22  and  N_20 
ROOT
ATOM      1  C   LIG d   1      -6.302  77.775 117.536  0.00  0.00     0.161 C 
ATOM      2  C   LIG d   1      -7.668  77.770 117.862  0.00  0.00     0.016 C 
ATOM      3  C   LIG d   1      -8.408  78.944 118.134  0.00  0.00     0.038 C 
ATOM      4  C   LIG d   1      -7.863  80.223 117.949  0.00  0.00     0.028 C 
ATOM      5  C   LIG d   1      -6.347  80.265 118.110  0.00  0.00    -0.047 C 
ATOM      6  C   LIG d   1      -5.718  79.168 117.220  0.00  0.00     0.091 C 
ENDROOT
BRANCH   1   7
ATOM      7  O   LIG d   1      -6.057  76.870 116.442  0.00  0.00    -0.368 OA
BRANCH   7   8
ATOM      8  C   LIG d   1      -6.075  75.458 116.766  0.00  0.00     0.119 C 
BRANCH   8   9
ATOM      9  C   LIG d   1      -4.613  75.002 116.932  0.00  0.00     0.028 C 
ATOM     10  C   LIG d   1      -3.691  75.580 115.846  0.00  0.00     0.006 C 
ENDBRANCH   8   9
BRANCH   8  11
ATOM     11  C   LIG d   1      -6.630  74.626 115.606  0.00  0.00     0.028 C 
ATOM     12  C   LIG d   1      -7.277  73.312 116.070  0.00  0.00     0.006 C 
ENDBRANCH   8  11
ENDBRANCH   7   8
ENDBRANCH   1   7
BRANCH   6  13
ATOM     13  N   LIG d   1      -4.242  79.085 117.382  0.00  0.00    -0.311 N 
ATOM     14  C   LIG d   1      -3.383  79.292 116.386  0.00  0.00     0.210 C 
ATOM     15  C   LIG d   1      -1.906  79.137 116.763  0.00  0.00     0.109 C 
ATOM     16  O   LIG d   1      -3.702  79.622 115.234  0.00  0.00    -0.276 OA
ATOM     17  H   LIG d   1      -3.896  78.853 118.292  0.00  0.00     0.149 HD
ENDBRANCH   6  13
BRANCH   5  18
ATOM     18  N   LIG d   1      -5.898  81.625 117.755  0.00  0.00     0.381 N 
ATOM     19  H   LIG d   1      -5.200  81.576 117.040  0.00  0.00    -0.090 HD
ATOM     20  H   LIG d   1      -5.489  82.054 118.566  0.00  0.00    -0.090 HD
ATOM     21  H   LIG d   1      -6.672  82.167 117.438  0.00  0.00    -0.090 HD
ENDBRANCH   5  18
BRANCH   3  22
ATOM     22  C   LIG d   1      -9.697  78.843 118.636  0.00  0.00     0.382 C 
ATOM     23  O   LIG d   1     -10.413  77.859 118.331  0.00  0.00    -0.241 OA
ATOM     24  O   LIG d   1     -10.168  79.746 119.353  0.00  0.00    -0.241 OA
ENDBRANCH   3  22
TORSDOF 7
ENDMDL
MODEL 5
REMARK VINA RESULT:      -4.9      2.171      5.426
REMARK  7 active torsions:
REMARK  status: ('A' for Active; 'I' for Inactive)
REMARK    1  A    between atoms: C_2  and  C_3 
REMARK    2  A    between atoms: C_3  and  O_6 
REMARK    3  A    between atoms: C_3  and  C_4 
REMARK    4  A    between atoms: C_7  and  O_6 
REMARK    5  A    between atoms: C_9  and  C_10 
REMARK    6  A    between atoms: N_15  and  C_14 
REMARK    7  A    between atoms: N_20  and  C_19 
REMARK       I    between atoms: C_22  and  N_20 
ROOT
ATOM      1  C   LIG d   1      -6.020  75.027 116.538  0.00  0.00     0.161 C 
ATOM      2  C   LIG d   1      -6.771  73.877 116.241  0.00  0.00     0.016 C 
ATOM      3  C   LIG d   1      -8.088  73.664 116.710  0.00  0.00     0.038 C 
ATOM      4  C   LIG d   1      -8.803  74.663 117.388  0.00  0.00     0.028 C 
ATOM      5  C   LIG d   1      -7.910  75.640 118.145  0.00  0.00    -0.047 C 
ATOM      6  C   LIG d   1      -6.824  76.175 117.183  0.00  0.00     0.091 C 
ENDROOT
BRANCH   1   7
ATOM      7  O   LIG d   1      -5.348  75.491 115.351  0.00  0.00    -0.368 OA
BRANCH   7   8
ATOM      8  C   LIG d   1      -3.900  75.481 115.393  0.00  0.00     0.119 C 
BRANCH   8   9
ATOM      9  C   LIG d   1      -3.479  74.667 116.632  0.00  0.00     0.028 C 
ATOM     10  C   LIG d   1      -2.471  75.422 117.515  0.00  0.00     0.006 C 
ENDBRANCH   8   9
BRANCH   8  11
ATOM     11  C   LIG d   1      -3.339  76.888 115.622  0.00  0.00     0.028 C 
ATOM     12  C   LIG d   1      -2.639  77.460 114.379  0.00  0.00     0.006 C 
ENDBRANCH   8  11
ENDBRANCH   7   8
ENDBRANCH   1   7
BRANCH   6  13
ATOM     13  N   LIG d   1      -5.857  77.074 117.864  0.00  0.00    -0.311 N 
ATOM     14  C   LIG d   1      -5.955  78.402 117.851  0.00  0.00     0.210 C 
ATOM     15  C   LIG d   1      -4.841  79.141 118.600  0.00  0.00     0.109 C 
ATOM     16  O   LIG d   1      -6.877  79.038 117.319  0.00  0.00    -0.276 OA
ATOM     17  H   LIG d   1      -5.094  76.641 118.348  0.00  0.00     0.149 HD
ENDBRANCH   6  13
BRANCH   5  18
ATOM     18  N   LIG d   1      -8.775  76.704 118.689  0.00  0.00     0.381 N 
ATOM     19  H   LIG d   1      -9.675  76.665 118.253  0.00  0.00    -0.090 HD
ATOM     20  H   LIG d   1      -8.362  77.596 118.482  0.00  0.00    -0.090 HD
ATOM     21  H   LIG d   1      -8.870  76.595 119.675  0.00  0.00    -0.090 HD
ENDBRANCH   5  18
BRANCH   3  22
ATOM     22  C   LIG d   1      -8.688  72.426 116.537  0.00  0.00     0.382 C 
ATOM     23  O   LIG d   1      -9.802  72.191 117.062  0.00  0.00    -0.241 OA
ATOM     24  O   LIG d   1      -8.108  71.528 115.898  0.00  0.00    -0.241 OA
ENDBRANCH   3  22
TORSDOF 7
ENDMDL
MODEL 6
REMARK VINA RESULT:      -4.8     12.423     15.221
REMARK  7 active torsions:
REMARK  status: ('A' for Active; 'I' for Inactive)
REMARK    1  A    between atoms: C_2  and  C_3 
REMARK    2  A    between atoms: C_3  and  O_6 
REMARK    3  A    between atoms: C_3  and  C_4 
REMARK    4  A    between atoms: C_7  and  O_6 
REMARK    5  A    between atoms: C_9  and  C_10 
REMARK    6  A    between atoms: N_15  and  C_14 
REMARK    7  A    between atoms: N_20  and  C_19 
REMARK       I    between atoms: C_22  and  N_20 
ROOT
ATOM      1  C   LIG d   1     -15.517  64.898 116.289  0.00  0.00     0.161 C 
ATOM      2  C   LIG d   1     -16.452  64.895 115.241  0.00  0.00     0.016 C 
ATOM      3  C   LIG d   1     -17.601  64.071 115.226  0.00  0.00     0.038 C 
ATOM      4  C   LIG d   1     -17.973  63.298 116.336  0.00  0.00     0.028 C 
ATOM      5  C   LIG d   1     -16.794  62.887 117.211  0.00  0.00    -0.047 C 
ATOM      6  C   LIG d   1     -15.964  64.144 117.558  0.00  0.00     0.091 C 
ENDROOT
BRANCH   1   7
ATOM      7  O   LIG d   1     -15.152  66.254 116.615  0.00  0.00    -0.368 OA
BRANCH   7   8
ATOM      8  C   LIG d   1     -16.238  67.128 117.011  0.00  0.00     0.119 C 
BRANCH   8   9
ATOM      9  C   LIG d   1     -16.067  68.455 116.246  0.00  0.00     0.028 C 
ATOM     10  C   LIG d   1     -15.282  68.279 114.935  0.00  0.00     0.006 C 
ENDBRANCH   8   9
BRANCH   8  11
ATOM     11  C   LIG d   1     -16.141  67.500 118.494  0.00  0.00     0.028 C 
ATOM     12  C   LIG d   1     -14.705  67.420 119.036  0.00  0.00     0.006 C 
ENDBRANCH   8  11
ENDBRANCH   7   8
ENDBRANCH   1   7
BRANCH   6  13
ATOM     13  N   LIG d   1     -14.744  63.819 118.342  0.00  0.00    -0.311 N 
ATOM     14  C   LIG d   1     -14.699  63.848 119.673  0.00  0.00     0.210 C 
ATOM     15  C   LIG d   1     -13.337  63.498 120.281  0.00  0.00     0.109 C 
ATOM     16  O   LIG d   1     -15.666  64.098 120.409  0.00  0.00    -0.276 OA
ATOM     17  H   LIG d   1     -13.922  63.575 117.826  0.00  0.00     0.149 HD
ENDBRANCH   6  13
BRANCH   5  18
ATOM     18  N   LIG d   1     -17.338  62.206 118.401  0.00  0.00     0.381 N 
ATOM     19  H   LIG d   1     -16.966  62.624 119.230  0.00  0.00    -0.090 HD
ATOM     20  H   LIG d   1     -17.057  61.242 118.381  0.00  0.00    -0.090 HD
ATOM     21  H   LIG d   1     -18.332  62.270 118.406  0.00  0.00    -0.090 HD
ENDBRANCH   5  18
BRANCH   3  22
ATOM     22  C   LIG d   1     -18.369  63.984 114.075  0.00  0.00     0.382 C 
ATOM     23  O   LIG d   1     -18.073  63.152 113.185  0.00  0.00    -0.241 OA
ATOM     24  O   LIG d   1     -19.329  64.758 113.897  0.00  0.00    -0.241 OA
ENDBRANCH   3  22
TORSDOF 7
ENDMDL
MODEL 7
REMARK VINA RESULT:      -4.7      2.255      3.204
REMARK  7 active torsions:
REMARK  status: ('A' for Active; 'I' for Inactive)
REMARK    1  A    between atoms: C_2  and  C_3 
REMARK    2  A    between atoms: C_3  and  O_6 
REMARK    3  A    between atoms: C_3  and  C_4 
REMARK    4  A    between atoms: C_7  and  O_6 
REMARK    5  A    between atoms: C_9  and  C_10 
REMARK    6  A    between atoms: N_15  and  C_14 
REMARK    7  A    between atoms: N_20  and  C_19 
REMARK       I    between atoms: C_22  and  N_20 
ROOT
ATOM      1  C   LIG d   1      -5.157  76.407 117.959  0.00  0.00     0.161 C 
ATOM      2  C   LIG d   1      -6.045  77.489 118.084  0.00  0.00     0.016 C 
ATOM      3  C   LIG d   1      -5.809  78.760 117.512  0.00  0.00     0.038 C 
ATOM      4  C   LIG d   1      -4.732  78.993 116.643  0.00  0.00     0.028 C 
ATOM      5  C   LIG d   1      -3.541  78.076 116.895  0.00  0.00    -0.047 C 
ATOM      6  C   LIG d   1      -4.033  76.611 116.922  0.00  0.00     0.091 C 
ENDROOT
BRANCH   1   7
ATOM      7  O   LIG d   1      -5.893  75.202 117.670  0.00  0.00    -0.368 OA
BRANCH   7   8
ATOM      8  C   LIG d   1      -6.896  75.302 116.629  0.00  0.00     0.119 C 
BRANCH   8   9
ATOM      9  C   LIG d   1      -8.213  74.741 117.200  0.00  0.00     0.028 C 
ATOM     10  C   LIG d   1      -8.417  73.256 116.856  0.00  0.00     0.006 C 
ENDBRANCH   8   9
BRANCH   8  11
ATOM     11  C   LIG d   1      -6.555  74.401 115.439  0.00  0.00     0.028 C 
ATOM     12  C   LIG d   1      -5.983  75.183 114.245  0.00  0.00     0.006 C 
ENDBRANCH   8  11
ENDBRANCH   7   8
ENDBRANCH   1   7
BRANCH   6  13
ATOM     13  N   LIG d   1      -2.944  75.653 117.246  0.00  0.00    -0.311 N 
ATOM     14  C   LIG d   1      -2.274  74.965 116.324  0.00  0.00     0.210 C 
ATOM     15  C   LIG d   1      -1.204  74.017 116.874  0.00  0.00     0.109 C 
ATOM     16  O   LIG d   1      -2.442  75.073 115.100  0.00  0.00    -0.276 OA
ATOM     17  H   LIG d   1      -2.721  75.526 118.214  0.00  0.00     0.149 HD
ENDBRANCH   6  13
BRANCH   5  18
ATOM     18  N   LIG d   1      -2.549  78.333 115.834  0.00  0.00     0.381 N 
ATOM     19  H   LIG d   1      -2.933  78.087 114.944  0.00  0.00    -0.090 HD
ATOM     20  H   LIG d   1      -1.741  77.758 115.998  0.00  0.00    -0.090 HD
ATOM     21  H   LIG d   1      -2.287  79.294 115.837  0.00  0.00    -0.090 HD
ENDBRANCH   5  18
BRANCH   3  22
ATOM     22  C   LIG d   1      -6.633  79.826 117.841  0.00  0.00     0.382 C 
ATOM     23  O   LIG d   1      -7.312  79.791 118.895  0.00  0.00    -0.241 OA
ATOM     24  O   LIG d   1      -6.739  80.802 117.074  0.00  0.00    -0.241 OA
ENDBRANCH   3  22
TORSDOF 7
ENDMDL
MODEL 8
REMARK VINA RESULT:      -4.7      2.400      6.716
REMARK  7 active torsions:
REMARK  status: ('A' for Active; 'I' for Inactive)
REMARK    1  A    between atoms: C_2  and  C_3 
REMARK    2  A    between atoms: C_3  and  O_6 
REMARK    3  A    between atoms: C_3  and  C_4 
REMARK    4  A    between atoms: C_7  and  O_6 
REMARK    5  A    between atoms: C_9  and  C_10 
REMARK    6  A    between atoms: N_15  and  C_14 
REMARK    7  A    between atoms: N_20  and  C_19 
REMARK       I    between atoms: C_22  and  N_20 
ROOT
ATOM      1  C   LIG d   1      -6.400  77.881 117.454  0.00  0.00     0.161 C 
ATOM      2  C   LIG d   1      -5.606  77.263 116.474  0.00  0.00     0.016 C 
ATOM      3  C   LIG d   1      -5.891  75.989 115.932  0.00  0.00     0.038 C 
ATOM      4  C   LIG d   1      -7.080  75.306 116.226  0.00  0.00     0.028 C 
ATOM      5  C   LIG d   1      -7.661  75.663 117.591  0.00  0.00    -0.047 C 
ATOM      6  C   LIG d   1      -7.762  77.201 117.707  0.00  0.00     0.091 C 
ENDROOT
BRANCH   1   7
ATOM      7  O   LIG d   1      -6.588  79.272 117.126  0.00  0.00    -0.368 OA
BRANCH   7   8
ATOM      8  C   LIG d   1      -5.866  80.223 117.947  0.00  0.00     0.119 C 
BRANCH   8   9
ATOM      9  C   LIG d   1      -6.903  81.181 118.565  0.00  0.00     0.028 C 
ATOM     10  C   LIG d   1      -8.102  81.429 117.634  0.00  0.00     0.006 C 
ENDBRANCH   8   9
BRANCH   8  11
ATOM     11  C   LIG d   1      -4.951  81.110 117.098  0.00  0.00     0.028 C 
ATOM     12  C   LIG d   1      -4.062  82.034 117.946  0.00  0.00     0.006 C 
ENDBRANCH   8  11
ENDBRANCH   7   8
ENDBRANCH   1   7
BRANCH   6  13
ATOM     13  N   LIG d   1      -8.241  77.638 119.044  0.00  0.00    -0.311 N 
ATOM     14  C   LIG d   1      -9.379  78.304 119.233  0.00  0.00     0.210 C 
ATOM     15  C   LIG d   1      -9.676  78.677 120.689  0.00  0.00     0.109 C 
ATOM     16  O   LIG d   1     -10.186  78.594 118.337  0.00  0.00    -0.276 OA
ATOM     17  H   LIG d   1      -7.663  77.417 119.831  0.00  0.00     0.149 HD
ENDBRANCH   6  13
BRANCH   5  18
ATOM     18  N   LIG d   1      -8.967  74.987 117.710  0.00  0.00     0.381 N 
ATOM     19  H   LIG d   1      -9.539  75.214 116.922  0.00  0.00    -0.090 HD
ATOM     20  H   LIG d   1      -9.428  75.316 118.540  0.00  0.00    -0.090 HD
ATOM     21  H   LIG d   1      -8.837  74.001 117.762  0.00  0.00    -0.090 HD
ENDBRANCH   5  18
BRANCH   3  22
ATOM     22  C   LIG d   1      -4.960  75.366 115.114  0.00  0.00     0.382 C 
ATOM     23  O   LIG d   1      -5.292  74.976 113.969  0.00  0.00    -0.241 OA
ATOM     24  O   LIG d   1      -3.804  75.150 115.524  0.00  0.00    -0.241 OA
ENDBRANCH   3  22
TORSDOF 7
ENDMDL
MODEL 9
REMARK VINA RESULT:      -4.7      2.420      5.694
REMARK  7 active torsions:
REMARK  status: ('A' for Active; 'I' for Inactive)
REMARK    1  A    between atoms: C_2  and  C_3 
REMARK    2  A    between atoms: C_3  and  O_6 
REMARK    3  A    between atoms: C_3  and  C_4 
REMARK    4  A    between atoms: C_7  and  O_6 
REMARK    5  A    between atoms: C_9  and  C_10 
REMARK    6  A    between atoms: N_15  and  C_14 
REMARK    7  A    between atoms: N_20  and  C_19 
REMARK       I    between atoms: C_22  and  N_20 
ROOT
ATOM      1  C   LIG d   1      -4.516  76.774 115.696  0.00  0.00     0.161 C 
ATOM      2  C   LIG d   1      -3.720  75.633 115.505  0.00  0.00     0.016 C 
ATOM      3  C   LIG d   1      -2.647  75.281 116.356  0.00  0.00     0.038 C 
ATOM      4  C   LIG d   1      -2.391  75.972 117.550  0.00  0.00     0.028 C 
ATOM      5  C   LIG d   1      -2.848  77.426 117.519  0.00  0.00    -0.047 C 
ATOM      6  C   LIG d   1      -4.322  77.478 117.055  0.00  0.00     0.091 C 
ENDROOT
BRANCH   1   7
ATOM      7  O   LIG d   1      -5.904  76.441 115.497  0.00  0.00    -0.368 OA
BRANCH   7   8
ATOM      8  C   LIG d   1      -6.426  75.371 116.323  0.00  0.00     0.119 C 
BRANCH   8   9
ATOM      9  C   LIG d   1      -6.757  74.188 115.392  0.00  0.00     0.028 C 
ATOM     10  C   LIG d   1      -7.470  73.042 116.130  0.00  0.00     0.006 C 
ENDBRANCH   8   9
BRANCH   8  11
ATOM     11  C   LIG d   1      -7.759  75.764 116.968  0.00  0.00     0.028 C 
ATOM     12  C   LIG d   1      -7.740  75.638 118.499  0.00  0.00     0.006 C 
ENDBRANCH   8  11
ENDBRANCH   7   8
ENDBRANCH   1   7
BRANCH   6  13
ATOM     13  N   LIG d   1      -4.824  78.870 116.916  0.00  0.00    -0.311 N 
ATOM     14  C   LIG d   1      -5.796  79.378 117.672  0.00  0.00     0.210 C 
ATOM     15  C   LIG d   1      -6.175  80.827 117.350  0.00  0.00     0.109 C 
ATOM     16  O   LIG d   1      -6.359  78.776 118.599  0.00  0.00    -0.276 OA
ATOM     17  H   LIG d   1      -4.401  79.439 116.209  0.00  0.00     0.149 HD
ENDBRANCH   6  13
BRANCH   5  18
ATOM     18  N   LIG d   1      -2.647  77.985 118.869  0.00  0.00     0.381 N 
ATOM     19  H   LIG d   1      -3.048  77.374 119.552  0.00  0.00    -0.090 HD
ATOM     20  H   LIG d   1      -3.116  78.872 118.927  0.00  0.00    -0.090 HD
ATOM     21  H   LIG d   1      -1.674  78.103 119.048  0.00  0.00    -0.090 HD
ENDBRANCH   5  18
BRANCH   3  22
ATOM     22  C   LIG d   1      -1.791  74.252 115.994  0.00  0.00     0.382 C 
ATOM     23  O   LIG d   1      -1.551  74.033 114.782  0.00  0.00    -0.241 OA
ATOM     24  O   LIG d   1      -1.291  73.512 116.861  0.00  0.00    -0.241 OA
ENDBRANCH   3  22
TORSDOF 7
ENDMDL
