MODEL 1
REMARK VINA RESULT:      -5.8      0.000      0.000
REMARK  7 active torsions:
REMARK  status: ('A' for Active; 'I' for Inactive)
REMARK    1  A    between atoms: C_2  and  C_3 
REMARK    2  A    between atoms: C_3  and  O_6 
REMARK    3  A    between atoms: C_3  and  C_4 
REMARK    4  A    between atoms: C_7  and  O_6 
REMARK    5  A    between atoms: C_9  and  C_10 
REMARK    6  A    between atoms: N_15  and  C_14 
REMARK    7  A    between atoms: N_20  and  C_19 
REMARK       I    between atoms: C_22  and  N_20 
ROOT
ATOM      1  C   LIG d   1      -6.611  75.453 117.512  0.00  0.00     0.161 C 
ATOM      2  C   LIG d   1      -6.924  74.173 117.027  0.00  0.00     0.016 C 
ATOM      3  C   LIG d   1      -8.241  73.753 116.732  0.00  0.00     0.038 C 
ATOM      4  C   LIG d   1      -9.326  74.641 116.761  0.00  0.00     0.028 C 
ATOM      5  C   LIG d   1      -9.133  75.803 117.729  0.00  0.00    -0.047 C 
ATOM      6  C   LIG d   1      -7.768  76.471 117.444  0.00  0.00     0.091 C 
ENDROOT
BRANCH   1   7
ATOM      7  O   LIG d   1      -5.451  75.966 116.827  0.00  0.00    -0.368 OA
BRANCH   7   8
ATOM      8  C   LIG d   1      -4.774  75.041 115.941  0.00  0.00     0.119 C 
BRANCH   8   9
ATOM      9  C   LIG d   1      -3.325  74.894 116.446  0.00  0.00     0.028 C 
ATOM     10  C   LIG d   1      -2.325  74.666 115.300  0.00  0.00     0.006 C 
ENDBRANCH   8   9
BRANCH   8  11
ATOM     11  C   LIG d   1      -4.654  75.612 114.525  0.00  0.00     0.028 C 
ATOM     12  C   LIG d   1      -6.019  75.836 113.855  0.00  0.00     0.006 C 
ENDBRANCH   8  11
ENDBRANCH   7   8
ENDBRANCH   1   7
BRANCH   6  13
ATOM     13  N   LIG d   1      -7.462  77.565 118.402  0.00  0.00    -0.311 N 
ATOM     14  C   LIG d   1      -7.012  78.762 118.029  0.00  0.00     0.210 C 
ATOM     15  C   LIG d   1      -6.741  79.738 119.178  0.00  0.00     0.109 C 
ATOM     16  O   LIG d   1      -6.842  79.119 116.853  0.00  0.00    -0.276 OA
ATOM     17  H   LIG d   1      -7.601  77.372 119.375  0.00  0.00     0.149 HD
ENDBRANCH   6  13
BRANCH   5  18
ATOM     18  N   LIG d   1     -10.274  76.722 117.556  0.00  0.00     0.381 N 
ATOM     19  H   LIG d   1     -10.433  76.885 116.582  0.00  0.00    -0.090 HD
ATOM     20  H   LIG d   1     -10.052  77.600 117.991  0.00  0.00    -0.090 HD
ATOM     21  H   LIG d   1     -11.091  76.333 117.974  0.00  0.00    -0.090 HD
ENDBRANCH   5  18
BRANCH   3  22
ATOM     22  C   LIG d   1      -8.489  72.419 116.443  0.00  0.00     0.382 C 
ATOM     23  O   LIG d   1      -9.617  71.925 116.680  0.00  0.00    -0.241 OA
ATOM     24  O   LIG d   1      -7.585  71.693 115.989  0.00  0.00    -0.241 OA
ENDBRANCH   3  22
TORSDOF 7
ENDMDL
MODEL 2
REMARK VINA RESULT:      -5.8      2.047      4.812
REMARK  7 active torsions:
REMARK  status: ('A' for Active; 'I' for Inactive)
REMARK    1  A    between atoms: C_2  and  C_3 
REMARK    2  A    between atoms: C_3  and  O_6 
REMARK    3  A    between atoms: C_3  and  C_4 
REMARK    4  A    between atoms: C_7  and  O_6 
REMARK    5  A    between atoms: C_9  and  C_10 
REMARK    6  A    between atoms: N_15  and  C_14 
REMARK    7  A    between atoms: N_20  and  C_19 
REMARK       I    between atoms: C_22  and  N_20 
ROOT
ATOM      1  C   LIG d   1      -6.009  75.819 116.422  0.00  0.00     0.161 C 
ATOM      2  C   LIG d   1      -4.914  75.002 116.095  0.00  0.00     0.016 C 
ATOM      3  C   LIG d   1      -3.573  75.350 116.376  0.00  0.00     0.038 C 
ATOM      4  C   LIG d   1      -3.244  76.477 117.144  0.00  0.00     0.028 C 
ATOM      5  C   LIG d   1      -4.282  77.591 117.059  0.00  0.00    -0.047 C 
ATOM      6  C   LIG d   1      -5.678  76.999 117.359  0.00  0.00     0.091 C 
ENDROOT
BRANCH   1   7
ATOM      7  O   LIG d   1      -7.067  75.016 116.982  0.00  0.00    -0.368 OA
BRANCH   7   8
ATOM      8  C   LIG d   1      -8.118  74.618 116.067  0.00  0.00     0.119 C 
BRANCH   8   9
ATOM      9  C   LIG d   1      -9.312  75.566 116.292  0.00  0.00     0.028 C 
ATOM     10  C   LIG d   1      -9.561  75.852 117.782  0.00  0.00     0.006 C 
ENDBRANCH   8   9
BRANCH   8  11
ATOM     11  C   LIG d   1      -8.644  73.218 116.397  0.00  0.00     0.028 C 
ATOM     12  C   LIG d   1      -7.536  72.152 116.407  0.00  0.00     0.006 C 
ENDBRANCH   8  11
ENDBRANCH   7   8
ENDBRANCH   1   7
BRANCH   6  13
ATOM     13  N   LIG d   1      -6.763  78.005 117.215  0.00  0.00    -0.311 N 
ATOM     14  C   LIG d   1      -7.227  78.733 118.229  0.00  0.00     0.210 C 
ATOM     15  C   LIG d   1      -8.361  79.697 117.867  0.00  0.00     0.109 C 
ATOM     16  O   LIG d   1      -6.786  78.694 119.387  0.00  0.00    -0.276 OA
ATOM     17  H   LIG d   1      -7.157  78.124 116.302  0.00  0.00     0.149 HD
ENDBRANCH   6  13
BRANCH   5  18
ATOM     18  N   LIG d   1      -3.884  78.644 118.012  0.00  0.00     0.381 N 
ATOM     19  H   LIG d   1      -4.657  79.255 118.184  0.00  0.00    -0.090 HD
ATOM     20  H   LIG d   1      -3.139  79.184 117.607  0.00  0.00    -0.090 HD
ATOM     21  H   LIG d   1      -3.579  78.233 118.867  0.00  0.00    -0.090 HD
ENDBRANCH   5  18
BRANCH   3  22
ATOM     22  C   LIG d   1      -2.541  74.586 115.852  0.00  0.00     0.382 C 
ATOM     23  O   LIG d   1      -2.432  74.447 114.609  0.00  0.00    -0.241 OA
ATOM     24  O   LIG d   1      -1.744  73.998 116.607  0.00  0.00    -0.241 OA
ENDBRANCH   3  22
TORSDOF 7
ENDMDL
MODEL 3
REMARK VINA RESULT:      -5.6      2.431      5.108
REMARK  7 active torsions:
REMARK  status: ('A' for Active; 'I' for Inactive)
REMARK    1  A    between atoms: C_2  and  C_3 
REMARK    2  A    between atoms: C_3  and  O_6 
REMARK    3  A    between atoms: C_3  and  C_4 
REMARK    4  A    between atoms: C_7  and  O_6 
REMARK    5  A    between atoms: C_9  and  C_10 
REMARK    6  A    between atoms: N_15  and  C_14 
REMARK    7  A    between atoms: N_20  and  C_19 
REMARK       I    between atoms: C_22  and  N_20 
ROOT
ATOM      1  C   LIG d   1      -7.651  77.130 117.634  0.00  0.00     0.161 C 
ATOM      2  C   LIG d   1      -8.857  77.809 117.873  0.00  0.00     0.016 C 
ATOM      3  C   LIG d   1      -8.947  79.214 118.002  0.00  0.00     0.038 C 
ATOM      4  C   LIG d   1      -7.852  80.054 117.749  0.00  0.00     0.028 C 
ATOM      5  C   LIG d   1      -6.505  79.384 118.001  0.00  0.00    -0.047 C 
ATOM      6  C   LIG d   1      -6.465  78.037 117.244  0.00  0.00     0.091 C 
ENDROOT
BRANCH   1   7
ATOM      7  O   LIG d   1      -7.853  76.113 116.633  0.00  0.00    -0.368 OA
BRANCH   7   8
ATOM      8  C   LIG d   1      -7.863  74.744 117.109  0.00  0.00     0.119 C 
BRANCH   8   9
ATOM      9  C   LIG d   1      -6.781  73.974 116.327  0.00  0.00     0.028 C 
ATOM     10  C   LIG d   1      -6.249  74.770 115.123  0.00  0.00     0.006 C 
ENDBRANCH   8   9
BRANCH   8  11
ATOM     11  C   LIG d   1      -9.183  74.046 116.769  0.00  0.00     0.028 C 
ATOM     12  C   LIG d   1      -9.001  72.555 116.443  0.00  0.00     0.006 C 
ENDBRANCH   8  11
ENDBRANCH   7   8
ENDBRANCH   1   7
BRANCH   6  13
ATOM     13  N   LIG d   1      -5.214  77.278 117.504  0.00  0.00    -0.311 N 
ATOM     14  C   LIG d   1      -4.140  77.343 116.719  0.00  0.00     0.210 C 
ATOM     15  C   LIG d   1      -2.964  76.465 117.158  0.00  0.00     0.109 C 
ATOM     16  O   LIG d   1      -4.038  78.069 115.719  0.00  0.00    -0.276 OA
ATOM     17  H   LIG d   1      -5.198  76.688 118.313  0.00  0.00     0.149 HD
ENDBRANCH   6  13
BRANCH   5  18
ATOM     18  N   LIG d   1      -5.453  80.323 117.567  0.00  0.00     0.381 N 
ATOM     19  H   LIG d   1      -5.633  80.623 116.629  0.00  0.00    -0.090 HD
ATOM     20  H   LIG d   1      -4.567  79.848 117.581  0.00  0.00    -0.090 HD
ATOM     21  H   LIG d   1      -5.426  81.111 118.176  0.00  0.00    -0.090 HD
ENDBRANCH   5  18
BRANCH   3  22
ATOM     22  C   LIG d   1     -10.134  79.791 118.428  0.00  0.00     0.382 C 
ATOM     23  O   LIG d   1     -10.754  79.301 119.403  0.00  0.00    -0.241 OA
ATOM     24  O   LIG d   1     -10.615  80.767 117.822  0.00  0.00    -0.241 OA
ENDBRANCH   3  22
TORSDOF 7
ENDMDL
MODEL 4
REMARK VINA RESULT:      -5.4      2.486      4.354
REMARK  7 active torsions:
REMARK  status: ('A' for Active; 'I' for Inactive)
REMARK    1  A    between atoms: C_2  and  C_3 
REMARK    2  A    between atoms: C_3  and  O_6 
REMARK    3  A    between atoms: C_3  and  C_4 
REMARK    4  A    between atoms: C_7  and  O_6 
REMARK    5  A    between atoms: C_9  and  C_10 
REMARK    6  A    between atoms: N_15  and  C_14 
REMARK    7  A    between atoms: N_20  and  C_19 
REMARK       I    between atoms: C_22  and  N_20 
ROOT
ATOM      1  C   LIG d   1      -7.067  76.599 118.227  0.00  0.00     0.161 C 
ATOM      2  C   LIG d   1      -8.461  76.674 118.379  0.00  0.00     0.016 C 
ATOM      3  C   LIG d   1      -9.191  77.881 118.281  0.00  0.00     0.038 C 
ATOM      4  C   LIG d   1      -8.589  79.080 117.873  0.00  0.00     0.028 C 
ATOM      5  C   LIG d   1      -7.102  79.154 118.201  0.00  0.00    -0.047 C 
ATOM      6  C   LIG d   1      -6.407  77.878 117.672  0.00  0.00     0.091 C 
ENDROOT
BRANCH   1   7
ATOM      7  O   LIG d   1      -6.724  75.463 117.409  0.00  0.00    -0.368 OA
BRANCH   7   8
ATOM      8  C   LIG d   1      -7.650  75.145 116.340  0.00  0.00     0.119 C 
BRANCH   8   9
ATOM      9  C   LIG d   1      -7.705  73.610 116.217  0.00  0.00     0.028 C 
ATOM     10  C   LIG d   1      -9.123  73.055 116.434  0.00  0.00     0.006 C 
ENDBRANCH   8   9
BRANCH   8  11
ATOM     11  C   LIG d   1      -7.131  75.642 114.988  0.00  0.00     0.028 C 
ATOM     12  C   LIG d   1      -5.605  75.512 114.851  0.00  0.00     0.006 C 
ENDBRANCH   8  11
ENDBRANCH   7   8
ENDBRANCH   1   7
BRANCH   6  13
ATOM     13  N   LIG d   1      -4.964  77.831 118.025  0.00  0.00    -0.311 N 
ATOM     14  C   LIG d   1      -3.996  78.239 117.207  0.00  0.00     0.210 C 
ATOM     15  C   LIG d   1      -2.575  78.084 117.760  0.00  0.00     0.109 C 
ATOM     16  O   LIG d   1      -4.179  78.744 116.090  0.00  0.00    -0.276 OA
ATOM     17  H   LIG d   1      -4.727  77.463 118.926  0.00  0.00     0.149 HD
ENDBRANCH   6  13
BRANCH   5  18
ATOM     18  N   LIG d   1      -6.574  80.392 117.599  0.00  0.00     0.381 N 
ATOM     19  H   LIG d   1      -5.769  80.700 118.108  0.00  0.00    -0.090 HD
ATOM     20  H   LIG d   1      -7.277  81.108 117.657  0.00  0.00    -0.090 HD
ATOM     21  H   LIG d   1      -6.331  80.232 116.646  0.00  0.00    -0.090 HD
ENDBRANCH   5  18
BRANCH   3  22
ATOM     22  C   LIG d   1     -10.532  77.903 118.633  0.00  0.00     0.382 C 
ATOM     23  O   LIG d   1     -10.887  78.426 119.717  0.00  0.00    -0.241 OA
ATOM     24  O   LIG d   1     -11.386  77.367 117.902  0.00  0.00    -0.241 OA
ENDBRANCH   3  22
TORSDOF 7
ENDMDL
MODEL 5
REMARK VINA RESULT:      -5.2      2.189      4.489
REMARK  7 active torsions:
REMARK  status: ('A' for Active; 'I' for Inactive)
REMARK    1  A    between atoms: C_2  and  C_3 
REMARK    2  A    between atoms: C_3  and  O_6 
REMARK    3  A    between atoms: C_3  and  C_4 
REMARK    4  A    between atoms: C_7  and  O_6 
REMARK    5  A    between atoms: C_9  and  C_10 
REMARK    6  A    between atoms: N_15  and  C_14 
REMARK    7  A    between atoms: N_20  and  C_19 
REMARK       I    between atoms: C_22  and  N_20 
ROOT
ATOM      1  C   LIG d   1      -7.530  76.268 117.054  0.00  0.00     0.161 C 
ATOM      2  C   LIG d   1      -8.205  75.042 116.936  0.00  0.00     0.016 C 
ATOM      3  C   LIG d   1      -7.560  73.825 116.615  0.00  0.00     0.038 C 
ATOM      4  C   LIG d   1      -6.163  73.725 116.538  0.00  0.00     0.028 C 
ATOM      5  C   LIG d   1      -5.482  75.034 116.151  0.00  0.00    -0.047 C 
ATOM      6  C   LIG d   1      -5.991  76.158 117.083  0.00  0.00     0.091 C 
ENDROOT
BRANCH   1   7
ATOM      7  O   LIG d   1      -8.003  76.977 118.216  0.00  0.00    -0.368 OA
BRANCH   7   8
ATOM      8  C   LIG d   1      -8.910  78.079 117.964  0.00  0.00     0.119 C 
BRANCH   8   9
ATOM      9  C   LIG d   1      -8.127  79.385 118.198  0.00  0.00     0.028 C 
ATOM     10  C   LIG d   1      -8.989  80.637 117.962  0.00  0.00     0.006 C 
ENDBRANCH   8   9
BRANCH   8  11
ATOM     11  C   LIG d   1     -10.053  78.103 118.983  0.00  0.00     0.028 C 
ATOM     12  C   LIG d   1     -11.207  77.160 118.607  0.00  0.00     0.006 C 
ENDBRANCH   8  11
ENDBRANCH   7   8
ENDBRANCH   1   7
BRANCH   6  13
ATOM     13  N   LIG d   1      -5.438  77.489 116.719  0.00  0.00    -0.311 N 
ATOM     14  C   LIG d   1      -4.723  78.239 117.555  0.00  0.00     0.210 C 
ATOM     15  C   LIG d   1      -4.266  79.586 116.986  0.00  0.00     0.109 C 
ATOM     16  O   LIG d   1      -4.396  77.903 118.703  0.00  0.00    -0.276 OA
ATOM     17  H   LIG d   1      -5.629  77.825 115.795  0.00  0.00     0.149 HD
ENDBRANCH   6  13
BRANCH   5  18
ATOM     18  N   LIG d   1      -4.025  74.822 116.243  0.00  0.00     0.381 N 
ATOM     19  H   LIG d   1      -3.766  74.656 117.195  0.00  0.00    -0.090 HD
ATOM     20  H   LIG d   1      -3.556  75.653 115.929  0.00  0.00    -0.090 HD
ATOM     21  H   LIG d   1      -3.757  74.047 115.678  0.00  0.00    -0.090 HD
ENDBRANCH   5  18
BRANCH   3  22
ATOM     22  C   LIG d   1      -8.318  72.700 116.328  0.00  0.00     0.382 C 
ATOM     23  O   LIG d   1      -7.755  71.593 116.153  0.00  0.00    -0.241 OA
ATOM     24  O   LIG d   1      -9.554  72.788 116.198  0.00  0.00    -0.241 OA
ENDBRANCH   3  22
TORSDOF 7
ENDMDL
MODEL 6
REMARK VINA RESULT:      -4.9      1.788      2.607
REMARK  7 active torsions:
REMARK  status: ('A' for Active; 'I' for Inactive)
REMARK    1  A    between atoms: C_2  and  C_3 
REMARK    2  A    between atoms: C_3  and  O_6 
REMARK    3  A    between atoms: C_3  and  C_4 
REMARK    4  A    between atoms: C_7  and  O_6 
REMARK    5  A    between atoms: C_9  and  C_10 
REMARK    6  A    between atoms: N_15  and  C_14 
REMARK    7  A    between atoms: N_20  and  C_19 
REMARK       I    between atoms: C_22  and  N_20 
ROOT
ATOM      1  C   LIG d   1      -7.065  77.151 117.405  0.00  0.00     0.161 C 
ATOM      2  C   LIG d   1      -7.110  75.876 116.817  0.00  0.00     0.016 C 
ATOM      3  C   LIG d   1      -8.303  75.132 116.662  0.00  0.00     0.038 C 
ATOM      4  C   LIG d   1      -9.561  75.681 116.949  0.00  0.00     0.028 C 
ATOM      5  C   LIG d   1      -9.518  76.773 118.013  0.00  0.00    -0.047 C 
ATOM      6  C   LIG d   1      -8.443  77.812 117.622  0.00  0.00     0.091 C 
ENDROOT
BRANCH   1   7
ATOM      7  O   LIG d   1      -6.211  78.016 116.630  0.00  0.00    -0.368 OA
BRANCH   7   8
ATOM      8  C   LIG d   1      -4.952  78.385 117.244  0.00  0.00     0.119 C 
BRANCH   8   9
ATOM      9  C   LIG d   1      -3.835  77.625 116.502  0.00  0.00     0.028 C 
ATOM     10  C   LIG d   1      -3.346  76.392 117.281  0.00  0.00     0.006 C 
ENDBRANCH   8   9
BRANCH   8  11
ATOM     11  C   LIG d   1      -4.876  77.901 118.695  0.00  0.00     0.028 C 
ATOM     12  C   LIG d   1      -4.743  79.054 119.701  0.00  0.00     0.006 C 
ENDBRANCH   8  11
ENDBRANCH   7   8
ENDBRANCH   1   7
BRANCH   6  13
ATOM     13  N   LIG d   1      -8.276  78.871 118.652  0.00  0.00    -0.311 N 
ATOM     14  C   LIG d   1      -8.145  80.163 118.359  0.00  0.00     0.210 C 
ATOM     15  C   LIG d   1      -7.965  81.085 119.570  0.00  0.00     0.109 C 
ATOM     16  O   LIG d   1      -8.192  80.638 117.215  0.00  0.00    -0.276 OA
ATOM     17  H   LIG d   1      -8.258  78.577 119.609  0.00  0.00     0.149 HD
ENDBRANCH   6  13
BRANCH   5  18
ATOM     18  N   LIG d   1     -10.872  77.351 118.113  0.00  0.00     0.381 N 
ATOM     19  H   LIG d   1     -11.428  76.805 118.740  0.00  0.00    -0.090 HD
ATOM     20  H   LIG d   1     -11.303  77.327 117.206  0.00  0.00    -0.090 HD
ATOM     21  H   LIG d   1     -10.817  78.291 118.438  0.00  0.00    -0.090 HD
ENDBRANCH   5  18
BRANCH   3  22
ATOM     22  C   LIG d   1      -8.239  73.809 116.253  0.00  0.00     0.382 C 
ATOM     23  O   LIG d   1      -9.276  73.103 116.250  0.00  0.00    -0.241 OA
ATOM     24  O   LIG d   1      -7.149  73.300 115.929  0.00  0.00    -0.241 OA
ENDBRANCH   3  22
TORSDOF 7
ENDMDL
MODEL 7
REMARK VINA RESULT:      -4.9      2.577      5.600
REMARK  7 active torsions:
REMARK  status: ('A' for Active; 'I' for Inactive)
REMARK    1  A    between atoms: C_2  and  C_3 
REMARK    2  A    between atoms: C_3  and  O_6 
REMARK    3  A    between atoms: C_3  and  C_4 
REMARK    4  A    between atoms: C_7  and  O_6 
REMARK    5  A    between atoms: C_9  and  C_10 
REMARK    6  A    between atoms: N_15  and  C_14 
REMARK    7  A    between atoms: N_20  and  C_19 
REMARK       I    between atoms: C_22  and  N_20 
ROOT
ATOM      1  C   LIG d   1      -6.815  77.985 117.322  0.00  0.00     0.161 C 
ATOM      2  C   LIG d   1      -5.628  78.697 117.088  0.00  0.00     0.016 C 
ATOM      3  C   LIG d   1      -5.475  80.073 117.378  0.00  0.00     0.038 C 
ATOM      4  C   LIG d   1      -6.459  80.799 118.066  0.00  0.00     0.028 C 
ATOM      5  C   LIG d   1      -7.867  80.248 117.869  0.00  0.00    -0.047 C 
ATOM      6  C   LIG d   1      -7.862  78.733 118.174  0.00  0.00     0.091 C 
ENDROOT
BRANCH   1   7
ATOM      7  O   LIG d   1      -6.510  76.706 117.912  0.00  0.00    -0.368 OA
BRANCH   7   8
ATOM      8  C   LIG d   1      -6.553  75.565 117.020  0.00  0.00     0.119 C 
BRANCH   8   9
ATOM      9  C   LIG d   1      -7.195  76.034 115.700  0.00  0.00     0.028 C 
ATOM     10  C   LIG d   1      -6.302  75.753 114.480  0.00  0.00     0.006 C 
ENDBRANCH   8   9
BRANCH   8  11
ATOM     11  C   LIG d   1      -7.481  74.472 117.557  0.00  0.00     0.028 C 
ATOM     12  C   LIG d   1      -8.930  74.628 117.070  0.00  0.00     0.006 C 
ENDBRANCH   8  11
ENDBRANCH   7   8
ENDBRANCH   1   7
BRANCH   6  13
ATOM     13  N   LIG d   1      -9.182  78.099 117.924  0.00  0.00    -0.311 N 
ATOM     14  C   LIG d   1     -10.095  77.907 118.875  0.00  0.00     0.210 C 
ATOM     15  C   LIG d   1     -11.381  77.218 118.407  0.00  0.00     0.109 C 
ATOM     16  O   LIG d   1      -9.975  78.271 120.054  0.00  0.00    -0.276 OA
ATOM     17  H   LIG d   1      -9.375  77.802 116.988  0.00  0.00     0.149 HD
ENDBRANCH   6  13
BRANCH   5  18
ATOM     18  N   LIG d   1      -8.772  81.012 118.748  0.00  0.00     0.381 N 
ATOM     19  H   LIG d   1      -9.566  80.452 118.986  0.00  0.00    -0.090 HD
ATOM     20  H   LIG d   1      -9.095  81.826 118.255  0.00  0.00    -0.090 HD
ATOM     21  H   LIG d   1      -8.291  81.287 119.576  0.00  0.00    -0.090 HD
ENDBRANCH   5  18
BRANCH   3  22
ATOM     22  C   LIG d   1      -4.344  80.746 116.943  0.00  0.00     0.382 C 
ATOM     23  O   LIG d   1      -3.831  80.458 115.834  0.00  0.00    -0.241 OA
ATOM     24  O   LIG d   1      -3.804  81.606 117.663  0.00  0.00    -0.241 OA
ENDBRANCH   3  22
TORSDOF 7
ENDMDL
MODEL 8
REMARK VINA RESULT:      -4.9      3.027      5.725
REMARK  7 active torsions:
REMARK  status: ('A' for Active; 'I' for Inactive)
REMARK    1  A    between atoms: C_2  and  C_3 
REMARK    2  A    between atoms: C_3  and  O_6 
REMARK    3  A    between atoms: C_3  and  C_4 
REMARK    4  A    between atoms: C_7  and  O_6 
REMARK    5  A    between atoms: C_9  and  C_10 
REMARK    6  A    between atoms: N_15  and  C_14 
REMARK    7  A    between atoms: N_20  and  C_19 
REMARK       I    between atoms: C_22  and  N_20 
ROOT
ATOM      1  C   LIG d   1      -3.816  75.333 116.031  0.00  0.00     0.161 C 
ATOM      2  C   LIG d   1      -2.882  74.592 115.288  0.00  0.00     0.016 C 
ATOM      3  C   LIG d   1      -1.484  74.702 115.464  0.00  0.00     0.038 C 
ATOM      4  C   LIG d   1      -0.925  75.455 116.508  0.00  0.00     0.028 C 
ATOM      5  C   LIG d   1      -1.809  76.613 116.959  0.00  0.00    -0.047 C 
ATOM      6  C   LIG d   1      -3.229  76.076 117.249  0.00  0.00     0.091 C 
ENDROOT
BRANCH   1   7
ATOM      7  O   LIG d   1      -4.903  74.479 116.441  0.00  0.00    -0.368 OA
BRANCH   7   8
ATOM      8  C   LIG d   1      -5.956  74.276 115.467  0.00  0.00     0.119 C 
BRANCH   8   9
ATOM      9  C   LIG d   1      -6.313  75.654 114.877  0.00  0.00     0.028 C 
ATOM     10  C   LIG d   1      -7.699  76.144 115.326  0.00  0.00     0.006 C 
ENDBRANCH   8   9
BRANCH   8  11
ATOM     11  C   LIG d   1      -7.241  73.775 116.132  0.00  0.00     0.028 C 
ATOM     12  C   LIG d   1      -7.327  72.242 116.183  0.00  0.00     0.006 C 
ENDBRANCH   8  11
ENDBRANCH   7   8
ENDBRANCH   1   7
BRANCH   6  13
ATOM     13  N   LIG d   1      -4.180  77.158 117.616  0.00  0.00    -0.311 N 
ATOM     14  C   LIG d   1      -4.403  78.228 116.854  0.00  0.00     0.210 C 
ATOM     15  C   LIG d   1      -5.406  79.233 117.428  0.00  0.00     0.109 C 
ATOM     16  O   LIG d   1      -3.889  78.424 115.743  0.00  0.00    -0.276 OA
ATOM     17  H   LIG d   1      -4.664  77.064 118.487  0.00  0.00     0.149 HD
ENDBRANCH   6  13
BRANCH   5  18
ATOM     18  N   LIG d   1      -1.171  77.226 118.139  0.00  0.00     0.381 N 
ATOM     19  H   LIG d   1      -0.222  77.463 117.927  0.00  0.00    -0.090 HD
ATOM     20  H   LIG d   1      -1.169  76.560 118.891  0.00  0.00    -0.090 HD
ATOM     21  H   LIG d   1      -1.671  78.043 118.411  0.00  0.00    -0.090 HD
ENDBRANCH   5  18
BRANCH   3  22
ATOM     22  C   LIG d   1      -0.627  74.085 114.565  0.00  0.00     0.382 C 
ATOM     23  O   LIG d   1       0.051  73.092 114.925  0.00  0.00    -0.241 OA
ATOM     24  O   LIG d   1      -0.490  74.535 113.412  0.00  0.00    -0.241 OA
ENDBRANCH   3  22
TORSDOF 7
ENDMDL
MODEL 9
REMARK VINA RESULT:      -4.5     12.872     16.235
REMARK  7 active torsions:
REMARK  status: ('A' for Active; 'I' for Inactive)
REMARK    1  A    between atoms: C_2  and  C_3 
REMARK    2  A    between atoms: C_3  and  O_6 
REMARK    3  A    between atoms: C_3  and  C_4 
REMARK    4  A    between atoms: C_7  and  O_6 
REMARK    5  A    between atoms: C_9  and  C_10 
REMARK    6  A    between atoms: N_15  and  C_14 
REMARK    7  A    between atoms: N_20  and  C_19 
REMARK       I    between atoms: C_22  and  N_20 
ROOT
ATOM      1  C   LIG d   1     -17.617  64.601 115.679  0.00  0.00     0.161 C 
ATOM      2  C   LIG d   1     -16.484  64.739 116.498  0.00  0.00     0.016 C 
ATOM      3  C   LIG d   1     -16.267  65.848 117.346  0.00  0.00     0.038 C 
ATOM      4  C   LIG d   1     -17.248  66.831 117.548  0.00  0.00     0.028 C 
ATOM      5  C   LIG d   1     -18.193  66.995 116.363  0.00  0.00    -0.047 C 
ATOM      6  C   LIG d   1     -18.750  65.608 115.969  0.00  0.00     0.091 C 
ENDROOT
BRANCH   1   7
ATOM      7  O   LIG d   1     -18.115  63.251 115.756  0.00  0.00    -0.368 OA
BRANCH   7   8
ATOM      8  C   LIG d   1     -17.929  62.434 114.574  0.00  0.00     0.119 C 
BRANCH   8   9
ATOM      9  C   LIG d   1     -19.323  62.160 113.977  0.00  0.00     0.028 C 
ATOM     10  C   LIG d   1     -20.419  62.090 115.053  0.00  0.00     0.006 C 
ENDBRANCH   8   9
BRANCH   8  11
ATOM     11  C   LIG d   1     -17.364  61.057 114.932  0.00  0.00     0.028 C 
ATOM     12  C   LIG d   1     -16.853  60.980 116.380  0.00  0.00     0.006 C 
ENDBRANCH   8  11
ENDBRANCH   7   8
ENDBRANCH   1   7
BRANCH   6  13
ATOM     13  N   LIG d   1     -19.619  65.667 114.764  0.00  0.00    -0.311 N 
ATOM     14  C   LIG d   1     -20.945  65.780 114.821  0.00  0.00     0.210 C 
ATOM     15  C   LIG d   1     -21.650  65.803 113.462  0.00  0.00     0.109 C 
ATOM     16  O   LIG d   1     -21.600  65.895 115.867  0.00  0.00    -0.276 OA
ATOM     17  H   LIG d   1     -19.166  65.612 113.873  0.00  0.00     0.149 HD
ENDBRANCH   6  13
BRANCH   5  18
ATOM     18  N   LIG d   1     -19.245  67.949 116.761  0.00  0.00     0.381 N 
ATOM     19  H   LIG d   1     -19.460  68.556 115.995  0.00  0.00    -0.090 HD
ATOM     20  H   LIG d   1     -18.904  68.511 117.521  0.00  0.00    -0.090 HD
ATOM     21  H   LIG d   1     -20.064  67.456 117.043  0.00  0.00    -0.090 HD
ENDBRANCH   5  18
BRANCH   3  22
ATOM     22  C   LIG d   1     -15.040  66.004 117.973  0.00  0.00     0.382 C 
ATOM     23  O   LIG d   1     -14.450  67.111 117.931  0.00  0.00    -0.241 OA
ATOM     24  O   LIG d   1     -14.495  65.040 118.543  0.00  0.00    -0.241 OA
ENDBRANCH   3  22
TORSDOF 7
ENDMDL
