MODEL 1
REMARK VINA RESULT:      -5.8      0.000      0.000
REMARK  7 active torsions:
REMARK  status: ('A' for Active; 'I' for Inactive)
REMARK    1  A    between atoms: C_2  and  C_3 
REMARK    2  A    between atoms: C_3  and  O_6 
REMARK    3  A    between atoms: C_3  and  C_4 
REMARK    4  A    between atoms: C_7  and  O_6 
REMARK    5  A    between atoms: C_9  and  C_10 
REMARK    6  A    between atoms: N_15  and  C_14 
REMARK    7  A    between atoms: N_20  and  C_19 
REMARK       I    between atoms: C_22  and  N_20 
ROOT
ATOM      1  C   LIG d   1      -8.239  76.158 116.630  0.00  0.00     0.161 C 
ATOM      2  C   LIG d   1      -7.302  75.611 115.737  0.00  0.00     0.016 C 
ATOM      3  C   LIG d   1      -6.012  76.153 115.535  0.00  0.00     0.038 C 
ATOM      4  C   LIG d   1      -5.514  77.198 116.327  0.00  0.00     0.028 C 
ATOM      5  C   LIG d   1      -6.604  78.104 116.890  0.00  0.00    -0.047 C 
ATOM      6  C   LIG d   1      -7.674  77.231 117.584  0.00  0.00     0.091 C 
ENDROOT
BRANCH   1   7
ATOM      7  O   LIG d   1      -8.873  75.103 117.380  0.00  0.00    -0.368 OA
BRANCH   7   8
ATOM      8  C   LIG d   1     -10.309  74.990 117.233  0.00  0.00     0.119 C 
BRANCH   8   9
ATOM      9  C   LIG d   1     -10.937  75.218 118.621  0.00  0.00     0.028 C 
ATOM     10  C   LIG d   1     -12.407  75.663 118.535  0.00  0.00     0.006 C 
ENDBRANCH   8   9
BRANCH   8  11
ATOM     11  C   LIG d   1     -10.718  73.569 116.832  0.00  0.00     0.028 C 
ATOM     12  C   LIG d   1      -9.531  72.593 116.803  0.00  0.00     0.006 C 
ENDBRANCH   8  11
ENDBRANCH   7   8
ENDBRANCH   1   7
BRANCH   6  13
ATOM     13  N   LIG d   1      -8.819  78.032 118.089  0.00  0.00    -0.311 N 
ATOM     14  C   LIG d   1      -9.103  78.171 119.383  0.00  0.00     0.210 C 
ATOM     15  C   LIG d   1     -10.339  79.023 119.687  0.00  0.00     0.109 C 
ATOM     16  O   LIG d   1      -8.429  77.696 120.310  0.00  0.00    -0.276 OA
ATOM     17  H   LIG d   1      -9.401  78.478 117.407  0.00  0.00     0.149 HD
ENDBRANCH   6  13
BRANCH   5  18
ATOM     18  N   LIG d   1      -5.958  79.063 117.806  0.00  0.00     0.381 N 
ATOM     19  H   LIG d   1      -5.753  78.615 118.677  0.00  0.00    -0.090 HD
ATOM     20  H   LIG d   1      -6.592  79.821 117.983  0.00  0.00    -0.090 HD
ATOM     21  H   LIG d   1      -5.118  79.411 117.398  0.00  0.00    -0.090 HD
ENDBRANCH   5  18
BRANCH   3  22
ATOM     22  C   LIG d   1      -5.221  75.675 114.502  0.00  0.00     0.382 C 
ATOM     23  O   LIG d   1      -4.572  76.477 113.786  0.00  0.00    -0.241 OA
ATOM     24  O   LIG d   1      -5.181  74.456 114.248  0.00  0.00    -0.241 OA
ENDBRANCH   3  22
TORSDOF 7
ENDMDL
MODEL 2
REMARK VINA RESULT:      -5.5      1.979      5.098
REMARK  7 active torsions:
REMARK  status: ('A' for Active; 'I' for Inactive)
REMARK    1  A    between atoms: C_2  and  C_3 
REMARK    2  A    between atoms: C_3  and  O_6 
REMARK    3  A    between atoms: C_3  and  C_4 
REMARK    4  A    between atoms: C_7  and  O_6 
REMARK    5  A    between atoms: C_9  and  C_10 
REMARK    6  A    between atoms: N_15  and  C_14 
REMARK    7  A    between atoms: N_20  and  C_19 
REMARK       I    between atoms: C_22  and  N_20 
ROOT
ATOM      1  C   LIG d   1      -8.146  76.206 117.136  0.00  0.00     0.161 C 
ATOM      2  C   LIG d   1      -9.035  75.161 116.832  0.00  0.00     0.016 C 
ATOM      3  C   LIG d   1     -10.344  75.075 117.360  0.00  0.00     0.038 C 
ATOM      4  C   LIG d   1     -10.910  76.114 118.113  0.00  0.00     0.028 C 
ATOM      5  C   LIG d   1      -9.877  76.950 118.862  0.00  0.00    -0.047 C 
ATOM      6  C   LIG d   1      -8.784  77.405 117.868  0.00  0.00     0.091 C 
ENDROOT
BRANCH   1   7
ATOM      7  O   LIG d   1      -7.482  76.647 115.936  0.00  0.00    -0.368 OA
BRANCH   7   8
ATOM      8  C   LIG d   1      -6.034  76.604 115.956  0.00  0.00     0.119 C 
BRANCH   8   9
ATOM      9  C   LIG d   1      -5.572  75.923 114.653  0.00  0.00     0.028 C 
ATOM     10  C   LIG d   1      -5.335  74.414 114.832  0.00  0.00     0.006 C 
ENDBRANCH   8   9
BRANCH   8  11
ATOM     11  C   LIG d   1      -5.518  75.708 117.087  0.00  0.00     0.028 C 
ATOM     12  C   LIG d   1      -4.496  76.417 117.990  0.00  0.00     0.006 C 
ENDBRANCH   8  11
ENDBRANCH   7   8
ENDBRANCH   1   7
BRANCH   6  13
ATOM     13  N   LIG d   1      -7.690  78.159 118.535  0.00  0.00    -0.311 N 
ATOM     14  C   LIG d   1      -7.324  79.388 118.177  0.00  0.00     0.210 C 
ATOM     15  C   LIG d   1      -6.160  79.976 118.982  0.00  0.00     0.109 C 
ATOM     16  O   LIG d   1      -7.873  80.061 117.292  0.00  0.00    -0.276 OA
ATOM     17  H   LIG d   1      -7.211  77.700 119.284  0.00  0.00     0.149 HD
ENDBRANCH   6  13
BRANCH   5  18
ATOM     18  N   LIG d   1     -10.590  78.077 119.493  0.00  0.00     0.381 N 
ATOM     19  H   LIG d   1     -10.132  78.937 119.266  0.00  0.00    -0.090 HD
ATOM     20  H   LIG d   1     -10.565  77.960 120.490  0.00  0.00    -0.090 HD
ATOM     21  H   LIG d   1     -11.535  78.103 119.178  0.00  0.00    -0.090 HD
ENDBRANCH   5  18
BRANCH   3  22
ATOM     22  C   LIG d   1     -11.087  73.920 117.167  0.00  0.00     0.382 C 
ATOM     23  O   LIG d   1     -12.300  73.895 117.487  0.00  0.00    -0.241 OA
ATOM     24  O   LIG d   1     -10.550  72.890 116.719  0.00  0.00    -0.241 OA
ENDBRANCH   3  22
TORSDOF 7
ENDMDL
MODEL 3
REMARK VINA RESULT:      -5.4     15.295     17.418
REMARK  7 active torsions:
REMARK  status: ('A' for Active; 'I' for Inactive)
REMARK    1  A    between atoms: C_2  and  C_3 
REMARK    2  A    between atoms: C_3  and  O_6 
REMARK    3  A    between atoms: C_3  and  C_4 
REMARK    4  A    between atoms: C_7  and  O_6 
REMARK    5  A    between atoms: C_9  and  C_10 
REMARK    6  A    between atoms: N_15  and  C_14 
REMARK    7  A    between atoms: N_20  and  C_19 
REMARK       I    between atoms: C_22  and  N_20 
ROOT
ATOM      1  C   LIG d   1      -5.648  92.307 118.296  0.00  0.00     0.161 C 
ATOM      2  C   LIG d   1      -5.486  91.554 117.122  0.00  0.00     0.016 C 
ATOM      3  C   LIG d   1      -6.213  91.797 115.934  0.00  0.00     0.038 C 
ATOM      4  C   LIG d   1      -7.049  92.915 115.793  0.00  0.00     0.028 C 
ATOM      5  C   LIG d   1      -7.627  93.411 117.115  0.00  0.00    -0.047 C 
ATOM      6  C   LIG d   1      -6.474  93.600 118.127  0.00  0.00     0.091 C 
ENDROOT
BRANCH   1   7
ATOM      7  O   LIG d   1      -4.358  92.608 118.866  0.00  0.00    -0.368 OA
BRANCH   7   8
ATOM      8  C   LIG d   1      -3.268  92.769 117.925  0.00  0.00     0.119 C 
BRANCH   8   9
ATOM      9  C   LIG d   1      -2.076  91.948 118.454  0.00  0.00     0.028 C 
ATOM     10  C   LIG d   1      -2.071  90.508 117.915  0.00  0.00     0.006 C 
ENDBRANCH   8   9
BRANCH   8  11
ATOM     11  C   LIG d   1      -2.776  94.219 117.886  0.00  0.00     0.028 C 
ATOM     12  C   LIG d   1      -1.280  94.332 117.553  0.00  0.00     0.006 C 
ENDBRANCH   8  11
ENDBRANCH   7   8
ENDBRANCH   1   7
BRANCH   6  13
ATOM     13  N   LIG d   1      -6.961  94.002 119.472  0.00  0.00    -0.311 N 
ATOM     14  C   LIG d   1      -7.042  95.270 119.873  0.00  0.00     0.210 C 
ATOM     15  C   LIG d   1      -7.551  95.463 121.305  0.00  0.00     0.109 C 
ATOM     16  O   LIG d   1      -6.770  96.253 119.168  0.00  0.00    -0.276 OA
ATOM     17  H   LIG d   1      -7.231  93.269 120.097  0.00  0.00     0.149 HD
ENDBRANCH   6  13
BRANCH   5  18
ATOM     18  N   LIG d   1      -8.365  94.658 116.839  0.00  0.00     0.381 N 
ATOM     19  H   LIG d   1      -7.724  95.424 116.777  0.00  0.00    -0.090 HD
ATOM     20  H   LIG d   1      -8.997  94.836 117.599  0.00  0.00    -0.090 HD
ATOM     21  H   LIG d   1      -8.874  94.571 115.987  0.00  0.00    -0.090 HD
ENDBRANCH   5  18
BRANCH   3  22
ATOM     22  C   LIG d   1      -6.138  90.894 114.885  0.00  0.00     0.382 C 
ATOM     23  O   LIG d   1      -6.754  91.123 113.816  0.00  0.00    -0.241 OA
ATOM     24  O   LIG d   1      -5.500  89.832 115.010  0.00  0.00    -0.241 OA
ENDBRANCH   3  22
TORSDOF 7
ENDMDL
MODEL 4
REMARK VINA RESULT:      -5.4      2.331      4.205
REMARK  7 active torsions:
REMARK  status: ('A' for Active; 'I' for Inactive)
REMARK    1  A    between atoms: C_2  and  C_3 
REMARK    2  A    between atoms: C_3  and  O_6 
REMARK    3  A    between atoms: C_3  and  C_4 
REMARK    4  A    between atoms: C_7  and  O_6 
REMARK    5  A    between atoms: C_9  and  C_10 
REMARK    6  A    between atoms: N_15  and  C_14 
REMARK    7  A    between atoms: N_20  and  C_19 
REMARK       I    between atoms: C_22  and  N_20 
ROOT
ATOM      1  C   LIG d   1      -7.907  77.067 117.341  0.00  0.00     0.161 C 
ATOM      2  C   LIG d   1      -6.933  78.074 117.240  0.00  0.00     0.016 C 
ATOM      3  C   LIG d   1      -7.107  79.380 117.752  0.00  0.00     0.038 C 
ATOM      4  C   LIG d   1      -8.215  79.726 118.539  0.00  0.00     0.028 C 
ATOM      5  C   LIG d   1      -9.455  78.891 118.239  0.00  0.00    -0.047 C 
ATOM      6  C   LIG d   1      -9.077  77.393 118.293  0.00  0.00     0.091 C 
ENDROOT
BRANCH   1   7
ATOM      7  O   LIG d   1      -7.287  75.822 117.718  0.00  0.00    -0.368 OA
BRANCH   7   8
ATOM      8  C   LIG d   1      -7.389  74.742 116.758  0.00  0.00     0.119 C 
BRANCH   8   9
ATOM      9  C   LIG d   1      -8.081  73.559 117.464  0.00  0.00     0.028 C 
ATOM     10  C   LIG d   1      -7.628  72.198 116.909  0.00  0.00     0.006 C 
ENDBRANCH   8   9
BRANCH   8  11
ATOM     11  C   LIG d   1      -6.007  74.221 116.355  0.00  0.00     0.028 C 
ATOM     12  C   LIG d   1      -5.530  74.781 115.005  0.00  0.00     0.006 C 
ENDBRANCH   8  11
ENDBRANCH   7   8
ENDBRANCH   1   7
BRANCH   6  13
ATOM     13  N   LIG d   1     -10.214  76.508 117.929  0.00  0.00    -0.311 N 
ATOM     14  C   LIG d   1     -10.763  75.635 118.772  0.00  0.00     0.210 C 
ATOM     15  C   LIG d   1     -11.911  74.806 118.188  0.00  0.00     0.109 C 
ATOM     16  O   LIG d   1     -10.429  75.491 119.958  0.00  0.00    -0.276 OA
ATOM     17  H   LIG d   1     -10.568  76.581 116.995  0.00  0.00     0.149 HD
ENDBRANCH   6  13
BRANCH   5  18
ATOM     18  N   LIG d   1     -10.491  79.261 119.222  0.00  0.00     0.381 N 
ATOM     19  H   LIG d   1     -10.865  78.437 119.647  0.00  0.00    -0.090 HD
ATOM     20  H   LIG d   1     -11.237  79.737 118.745  0.00  0.00    -0.090 HD
ATOM     21  H   LIG d   1     -10.101  79.856 119.920  0.00  0.00    -0.090 HD
ENDBRANCH   5  18
BRANCH   3  22
ATOM     22  C   LIG d   1      -6.183  80.367 117.444  0.00  0.00     0.382 C 
ATOM     23  O   LIG d   1      -4.981  80.227 117.774  0.00  0.00    -0.241 OA
ATOM     24  O   LIG d   1      -6.546  81.417 116.880  0.00  0.00    -0.241 OA
ENDBRANCH   3  22
TORSDOF 7
ENDMDL
MODEL 5
REMARK VINA RESULT:      -5.3     15.035     17.126
REMARK  7 active torsions:
REMARK  status: ('A' for Active; 'I' for Inactive)
REMARK    1  A    between atoms: C_2  and  C_3 
REMARK    2  A    between atoms: C_3  and  O_6 
REMARK    3  A    between atoms: C_3  and  C_4 
REMARK    4  A    between atoms: C_7  and  O_6 
REMARK    5  A    between atoms: C_9  and  C_10 
REMARK    6  A    between atoms: N_15  and  C_14 
REMARK    7  A    between atoms: N_20  and  C_19 
REMARK       I    between atoms: C_22  and  N_20 
ROOT
ATOM      1  C   LIG d   1      -4.942  92.234 117.750  0.00  0.00     0.161 C 
ATOM      2  C   LIG d   1      -5.262  91.459 116.622  0.00  0.00     0.016 C 
ATOM      3  C   LIG d   1      -6.230  91.842 115.665  0.00  0.00     0.038 C 
ATOM      4  C   LIG d   1      -6.840  93.105 115.691  0.00  0.00     0.028 C 
ATOM      5  C   LIG d   1      -6.919  93.711 117.088  0.00  0.00    -0.047 C 
ATOM      6  C   LIG d   1      -5.516  93.666 117.735  0.00  0.00     0.091 C 
ENDROOT
BRANCH   1   7
ATOM      7  O   LIG d   1      -3.512  92.269 117.928  0.00  0.00    -0.368 OA
BRANCH   7   8
ATOM      8  C   LIG d   1      -2.962  91.305 118.859  0.00  0.00     0.119 C 
BRANCH   8   9
ATOM      9  C   LIG d   1      -2.292  92.094 120.000  0.00  0.00     0.028 C 
ATOM     10  C   LIG d   1      -1.433  93.260 119.483  0.00  0.00     0.006 C 
ENDBRANCH   8   9
BRANCH   8  11
ATOM     11  C   LIG d   1      -1.837  90.488 118.216  0.00  0.00     0.028 C 
ATOM     12  C   LIG d   1      -2.306  89.107 117.730  0.00  0.00     0.006 C 
ENDBRANCH   8  11
ENDBRANCH   7   8
ENDBRANCH   1   7
BRANCH   6  13
ATOM     13  N   LIG d   1      -5.521  94.162 119.136  0.00  0.00    -0.311 N 
ATOM     14  C   LIG d   1      -4.723  95.135 119.572  0.00  0.00     0.210 C 
ATOM     15  C   LIG d   1      -4.876  95.480 121.057  0.00  0.00     0.109 C 
ATOM     16  O   LIG d   1      -3.925  95.766 118.863  0.00  0.00    -0.276 OA
ATOM     17  H   LIG d   1      -6.160  93.727 119.772  0.00  0.00     0.149 HD
ENDBRANCH   6  13
BRANCH   5  18
ATOM     18  N   LIG d   1      -7.449  95.081 116.951  0.00  0.00     0.381 N 
ATOM     19  H   LIG d   1      -8.329  95.057 116.476  0.00  0.00    -0.090 HD
ATOM     20  H   LIG d   1      -6.807  95.623 116.400  0.00  0.00    -0.090 HD
ATOM     21  H   LIG d   1      -7.559  95.495 117.850  0.00  0.00    -0.090 HD
ENDBRANCH   5  18
BRANCH   3  22
ATOM     22  C   LIG d   1      -6.627  90.939 114.690  0.00  0.00     0.382 C 
ATOM     23  O   LIG d   1      -7.062  91.356 113.590  0.00  0.00    -0.241 OA
ATOM     24  O   LIG d   1      -6.597  89.714 114.914  0.00  0.00    -0.241 OA
ENDBRANCH   3  22
TORSDOF 7
ENDMDL
MODEL 6
REMARK VINA RESULT:      -5.2      1.437      2.097
REMARK  7 active torsions:
REMARK  status: ('A' for Active; 'I' for Inactive)
REMARK    1  A    between atoms: C_2  and  C_3 
REMARK    2  A    between atoms: C_3  and  O_6 
REMARK    3  A    between atoms: C_3  and  C_4 
REMARK    4  A    between atoms: C_7  and  O_6 
REMARK    5  A    between atoms: C_9  and  C_10 
REMARK    6  A    between atoms: N_15  and  C_14 
REMARK    7  A    between atoms: N_20  and  C_19 
REMARK       I    between atoms: C_22  and  N_20 
ROOT
ATOM      1  C   LIG d   1      -7.667  76.383 117.386  0.00  0.00     0.161 C 
ATOM      2  C   LIG d   1      -7.205  75.786 116.202  0.00  0.00     0.016 C 
ATOM      3  C   LIG d   1      -6.042  76.211 115.519  0.00  0.00     0.038 C 
ATOM      4  C   LIG d   1      -5.173  77.170 116.060  0.00  0.00     0.028 C 
ATOM      5  C   LIG d   1      -5.865  78.153 116.999  0.00  0.00    -0.047 C 
ATOM      6  C   LIG d   1      -6.673  77.358 118.050  0.00  0.00     0.091 C 
ENDROOT
BRANCH   1   7
ATOM      7  O   LIG d   1      -8.071  75.364 118.322  0.00  0.00    -0.368 OA
BRANCH   7   8
ATOM      8  C   LIG d   1      -9.494  75.108 118.412  0.00  0.00     0.119 C 
BRANCH   8   9
ATOM      9  C   LIG d   1      -9.846  74.065 117.335  0.00  0.00     0.028 C 
ATOM     10  C   LIG d   1     -11.361  73.962 117.089  0.00  0.00     0.006 C 
ENDBRANCH   8   9
BRANCH   8  11
ATOM     11  C   LIG d   1     -10.308  76.354 118.051  0.00  0.00     0.028 C 
ATOM     12  C   LIG d   1     -10.919  77.044 119.281  0.00  0.00     0.006 C 
ENDBRANCH   8  11
ENDBRANCH   7   8
ENDBRANCH   1   7
BRANCH   6  13
ATOM     13  N   LIG d   1      -7.448  78.243 118.958  0.00  0.00    -0.311 N 
ATOM     14  C   LIG d   1      -8.034  79.371 118.557  0.00  0.00     0.210 C 
ATOM     15  C   LIG d   1      -8.767  80.145 119.658  0.00  0.00     0.109 C 
ATOM     16  O   LIG d   1      -8.043  79.787 117.389  0.00  0.00    -0.276 OA
ATOM     17  H   LIG d   1      -7.518  77.965 119.917  0.00  0.00     0.149 HD
ENDBRANCH   6  13
BRANCH   5  18
ATOM     18  N   LIG d   1      -4.823  79.008 117.596  0.00  0.00     0.381 N 
ATOM     19  H   LIG d   1      -3.976  78.486 117.701  0.00  0.00    -0.090 HD
ATOM     20  H   LIG d   1      -5.126  79.303 118.507  0.00  0.00    -0.090 HD
ATOM     21  H   LIG d   1      -4.662  79.804 117.018  0.00  0.00    -0.090 HD
ENDBRANCH   5  18
BRANCH   3  22
ATOM     22  C   LIG d   1      -5.759  75.701 114.261  0.00  0.00     0.382 C 
ATOM     23  O   LIG d   1      -5.107  74.635 114.148  0.00  0.00    -0.241 OA
ATOM     24  O   LIG d   1      -6.110  76.317 113.236  0.00  0.00    -0.241 OA
ENDBRANCH   3  22
TORSDOF 7
ENDMDL
MODEL 7
REMARK VINA RESULT:      -5.1      2.250      4.262
REMARK  7 active torsions:
REMARK  status: ('A' for Active; 'I' for Inactive)
REMARK    1  A    between atoms: C_2  and  C_3 
REMARK    2  A    between atoms: C_3  and  O_6 
REMARK    3  A    between atoms: C_3  and  C_4 
REMARK    4  A    between atoms: C_7  and  O_6 
REMARK    5  A    between atoms: C_9  and  C_10 
REMARK    6  A    between atoms: N_15  and  C_14 
REMARK    7  A    between atoms: N_20  and  C_19 
REMARK       I    between atoms: C_22  and  N_20 
ROOT
ATOM      1  C   LIG d   1      -6.540  77.170 117.096  0.00  0.00     0.161 C 
ATOM      2  C   LIG d   1      -5.586  77.283 116.071  0.00  0.00     0.016 C 
ATOM      3  C   LIG d   1      -5.076  76.174 115.356  0.00  0.00     0.038 C 
ATOM      4  C   LIG d   1      -5.602  74.883 115.517  0.00  0.00     0.028 C 
ATOM      5  C   LIG d   1      -6.209  74.644 116.896  0.00  0.00    -0.047 C 
ATOM      6  C   LIG d   1      -7.206  75.783 117.209  0.00  0.00     0.091 C 
ENDROOT
BRANCH   1   7
ATOM      7  O   LIG d   1      -7.541  78.196 116.947  0.00  0.00    -0.368 OA
BRANCH   7   8
ATOM      8  C   LIG d   1      -7.654  79.140 118.040  0.00  0.00     0.119 C 
BRANCH   8   9
ATOM      9  C   LIG d   1      -9.155  79.355 118.312  0.00  0.00     0.028 C 
ATOM     10  C   LIG d   1      -9.619  80.777 117.953  0.00  0.00     0.006 C 
ENDBRANCH   8   9
BRANCH   8  11
ATOM     11  C   LIG d   1      -7.112  80.517 117.645  0.00  0.00     0.028 C 
ATOM     12  C   LIG d   1      -5.735  80.814 118.260  0.00  0.00     0.006 C 
ENDBRANCH   8  11
ENDBRANCH   7   8
ENDBRANCH   1   7
BRANCH   6  13
ATOM     13  N   LIG d   1      -7.783  75.671 118.574  0.00  0.00    -0.311 N 
ATOM     14  C   LIG d   1      -8.968  75.118 118.827  0.00  0.00     0.210 C 
ATOM     15  C   LIG d   1      -9.383  75.123 120.301  0.00  0.00     0.109 C 
ATOM     16  O   LIG d   1      -9.700  74.596 117.973  0.00  0.00    -0.276 OA
ATOM     17  H   LIG d   1      -7.241  76.042 119.330  0.00  0.00     0.149 HD
ENDBRANCH   6  13
BRANCH   5  18
ATOM     18  N   LIG d   1      -6.840  73.311 116.879  0.00  0.00     0.381 N 
ATOM     19  H   LIG d   1      -7.693  73.347 116.358  0.00  0.00    -0.090 HD
ATOM     20  H   LIG d   1      -7.057  73.043 117.823  0.00  0.00    -0.090 HD
ATOM     21  H   LIG d   1      -6.221  72.646 116.471  0.00  0.00    -0.090 HD
ENDBRANCH   5  18
BRANCH   3  22
ATOM     22  C   LIG d   1      -4.001  76.345 114.497  0.00  0.00     0.382 C 
ATOM     23  O   LIG d   1      -4.172  76.892 113.381  0.00  0.00    -0.241 OA
ATOM     24  O   LIG d   1      -2.872  75.920 114.806  0.00  0.00    -0.241 OA
ENDBRANCH   3  22
TORSDOF 7
ENDMDL
MODEL 8
REMARK VINA RESULT:      -5.0      2.425      4.367
REMARK  7 active torsions:
REMARK  status: ('A' for Active; 'I' for Inactive)
REMARK    1  A    between atoms: C_2  and  C_3 
REMARK    2  A    between atoms: C_3  and  O_6 
REMARK    3  A    between atoms: C_3  and  C_4 
REMARK    4  A    between atoms: C_7  and  O_6 
REMARK    5  A    between atoms: C_9  and  C_10 
REMARK    6  A    between atoms: N_15  and  C_14 
REMARK    7  A    between atoms: N_20  and  C_19 
REMARK       I    between atoms: C_22  and  N_20 
ROOT
ATOM      1  C   LIG d   1      -6.853  76.194 117.480  0.00  0.00     0.161 C 
ATOM      2  C   LIG d   1      -5.575  75.920 116.963  0.00  0.00     0.016 C 
ATOM      3  C   LIG d   1      -5.193  74.654 116.464  0.00  0.00     0.038 C 
ATOM      4  C   LIG d   1      -6.115  73.609 116.307  0.00  0.00     0.028 C 
ATOM      5  C   LIG d   1      -7.286  73.683 117.282  0.00  0.00    -0.047 C 
ATOM      6  C   LIG d   1      -7.906  75.098 117.215  0.00  0.00     0.091 C 
ENDROOT
BRANCH   1   7
ATOM      7  O   LIG d   1      -7.318  77.466 116.986  0.00  0.00    -0.368 OA
BRANCH   7   8
ATOM      8  C   LIG d   1      -7.129  78.599 117.868  0.00  0.00     0.119 C 
BRANCH   8   9
ATOM      9  C   LIG d   1      -7.082  78.061 119.311  0.00  0.00     0.028 C 
ATOM     10  C   LIG d   1      -5.936  78.678 120.131  0.00  0.00     0.006 C 
ENDBRANCH   8   9
BRANCH   8  11
ATOM     11  C   LIG d   1      -8.334  79.544 117.827  0.00  0.00     0.028 C 
ATOM     12  C   LIG d   1      -9.593  78.932 118.461  0.00  0.00     0.006 C 
ENDBRANCH   8  11
ENDBRANCH   7   8
ENDBRANCH   1   7
BRANCH   6  13
ATOM     13  N   LIG d   1      -9.005  75.282 118.199  0.00  0.00    -0.311 N 
ATOM     14  C   LIG d   1     -10.292  75.119 117.899  0.00  0.00     0.210 C 
ATOM     15  C   LIG d   1     -11.263  75.378 119.055  0.00  0.00     0.109 C 
ATOM     16  O   LIG d   1     -10.720  74.753 116.794  0.00  0.00    -0.276 OA
ATOM     17  H   LIG d   1      -8.745  75.549 119.128  0.00  0.00     0.149 HD
ENDBRANCH   6  13
BRANCH   5  18
ATOM     18  N   LIG d   1      -8.238  72.617 116.917  0.00  0.00     0.381 N 
ATOM     19  H   LIG d   1      -9.121  73.020 116.675  0.00  0.00    -0.090 HD
ATOM     20  H   LIG d   1      -8.372  72.016 117.711  0.00  0.00    -0.090 HD
ATOM     21  H   LIG d   1      -7.883  72.091 116.149  0.00  0.00    -0.090 HD
ENDBRANCH   5  18
BRANCH   3  22
ATOM     22  C   LIG d   1      -3.864  74.412 116.152  0.00  0.00     0.382 C 
ATOM     23  O   LIG d   1      -3.124  73.822 116.976  0.00  0.00    -0.241 OA
ATOM     24  O   LIG d   1      -3.384  74.814 115.075  0.00  0.00    -0.241 OA
ENDBRANCH   3  22
TORSDOF 7
ENDMDL
MODEL 9
REMARK VINA RESULT:      -5.0      2.309      4.547
REMARK  7 active torsions:
REMARK  status: ('A' for Active; 'I' for Inactive)
REMARK    1  A    between atoms: C_2  and  C_3 
REMARK    2  A    between atoms: C_3  and  O_6 
REMARK    3  A    between atoms: C_3  and  C_4 
REMARK    4  A    between atoms: C_7  and  O_6 
REMARK    5  A    between atoms: C_9  and  C_10 
REMARK    6  A    between atoms: N_15  and  C_14 
REMARK    7  A    between atoms: N_20  and  C_19 
REMARK       I    between atoms: C_22  and  N_20 
ROOT
ATOM      1  C   LIG d   1      -7.213  77.941 117.441  0.00  0.00     0.161 C 
ATOM      2  C   LIG d   1      -6.331  77.535 116.426  0.00  0.00     0.016 C 
ATOM      3  C   LIG d   1      -6.449  76.305 115.738  0.00  0.00     0.038 C 
ATOM      4  C   LIG d   1      -7.554  75.460 115.916  0.00  0.00     0.028 C 
ATOM      5  C   LIG d   1      -8.201  75.589 117.290  0.00  0.00    -0.047 C 
ATOM      6  C   LIG d   1      -8.488  77.082 117.571  0.00  0.00     0.091 C 
ENDROOT
BRANCH   1   7
ATOM      7  O   LIG d   1      -7.560  79.328 117.261  0.00  0.00    -0.368 OA
BRANCH   7   8
ATOM      8  C   LIG d   1      -6.727  80.289 117.956  0.00  0.00     0.119 C 
BRANCH   8   9
ATOM      9  C   LIG d   1      -7.210  80.348 119.418  0.00  0.00     0.028 C 
ATOM     10  C   LIG d   1      -6.121  79.916 120.414  0.00  0.00     0.006 C 
ENDBRANCH   8   9
BRANCH   8  11
ATOM     11  C   LIG d   1      -6.929  81.703 117.404  0.00  0.00     0.028 C 
ATOM     12  C   LIG d   1      -8.407  82.040 117.154  0.00  0.00     0.006 C 
ENDBRANCH   8  11
ENDBRANCH   7   8
ENDBRANCH   1   7
BRANCH   6  13
ATOM     13  N   LIG d   1      -9.045  77.306 118.931  0.00  0.00    -0.311 N 
ATOM     14  C   LIG d   1     -10.351  77.342 119.191  0.00  0.00     0.210 C 
ATOM     15  C   LIG d   1     -10.710  77.606 120.657  0.00  0.00     0.109 C 
ATOM     16  O   LIG d   1     -11.245  77.148 118.354  0.00  0.00    -0.276 OA
ATOM     17  H   LIG d   1      -8.390  77.442 119.675  0.00  0.00     0.149 HD
ENDBRANCH   6  13
BRANCH   5  18
ATOM     18  N   LIG d   1      -9.419  74.756 117.290  0.00  0.00     0.381 N 
ATOM     19  H   LIG d   1      -9.170  73.793 117.393  0.00  0.00    -0.090 HD
ATOM     20  H   LIG d   1      -9.889  74.868 116.409  0.00  0.00    -0.090 HD
ATOM     21  H   LIG d   1     -10.021  75.032 118.034  0.00  0.00    -0.090 HD
ENDBRANCH   5  18
BRANCH   3  22
ATOM     22  C   LIG d   1      -5.433  75.892 114.890  0.00  0.00     0.382 C 
ATOM     23  O   LIG d   1      -5.304  76.424 113.760  0.00  0.00    -0.241 OA
ATOM     24  O   LIG d   1      -4.671  74.965 115.222  0.00  0.00    -0.241 OA
ENDBRANCH   3  22
TORSDOF 7
ENDMDL
