MODEL 1
REMARK VINA RESULT:      -5.7      0.000      0.000
REMARK  7 active torsions:
REMARK  status: ('A' for Active; 'I' for Inactive)
REMARK    1  A    between atoms: C_2  and  C_3 
REMARK    2  A    between atoms: C_3  and  O_6 
REMARK    3  A    between atoms: C_3  and  C_4 
REMARK    4  A    between atoms: C_7  and  O_6 
REMARK    5  A    between atoms: C_9  and  C_10 
REMARK    6  A    between atoms: N_15  and  C_14 
REMARK    7  A    between atoms: N_20  and  C_19 
REMARK       I    between atoms: C_22  and  N_20 
ROOT
ATOM      1  C   LIG d   1      -9.696  76.297 117.659  0.00  0.00     0.161 C 
ATOM      2  C   LIG d   1     -10.487  77.312 118.223  0.00  0.00     0.016 C 
ATOM      3  C   LIG d   1     -10.004  78.612 118.499  0.00  0.00     0.038 C 
ATOM      4  C   LIG d   1      -8.731  79.034 118.087  0.00  0.00     0.028 C 
ATOM      5  C   LIG d   1      -7.725  77.894 117.970  0.00  0.00    -0.047 C 
ATOM      6  C   LIG d   1      -8.337  76.771 117.101  0.00  0.00     0.091 C 
ENDROOT
BRANCH   1   7
ATOM      7  O   LIG d   1     -10.442  75.606 116.639  0.00  0.00    -0.368 OA
BRANCH   7   8
ATOM      8  C   LIG d   1     -11.015  74.331 117.022  0.00  0.00     0.119 C 
BRANCH   8   9
ATOM      9  C   LIG d   1     -12.366  74.617 117.705  0.00  0.00     0.028 C 
ATOM     10  C   LIG d   1     -12.447  74.020 119.120  0.00  0.00     0.006 C 
ENDBRANCH   8   9
BRANCH   8  11
ATOM     11  C   LIG d   1     -10.162  73.634 118.086  0.00  0.00     0.028 C 
ATOM     12  C   LIG d   1      -9.261  72.535 117.502  0.00  0.00     0.006 C 
ENDBRANCH   8  11
ENDBRANCH   7   8
ENDBRANCH   1   7
BRANCH   6  13
ATOM     13  N   LIG d   1      -7.451  75.582 117.005  0.00  0.00    -0.311 N 
ATOM     14  C   LIG d   1      -6.945  75.136 115.857  0.00  0.00     0.210 C 
ATOM     15  C   LIG d   1      -6.072  73.883 115.979  0.00  0.00     0.109 C 
ATOM     16  O   LIG d   1      -7.110  75.677 114.754  0.00  0.00    -0.276 OA
ATOM     17  H   LIG d   1      -7.240  75.100 117.857  0.00  0.00     0.149 HD
ENDBRANCH   6  13
BRANCH   5  18
ATOM     18  N   LIG d   1      -6.483  78.452 117.401  0.00  0.00     0.381 N 
ATOM     19  H   LIG d   1      -6.704  79.066 116.643  0.00  0.00    -0.090 HD
ATOM     20  H   LIG d   1      -5.922  77.699 117.045  0.00  0.00    -0.090 HD
ATOM     21  H   LIG d   1      -5.980  78.949 118.104  0.00  0.00    -0.090 HD
ENDBRANCH   5  18
BRANCH   3  22
ATOM     22  C   LIG d   1     -10.786  79.495 119.229  0.00  0.00     0.382 C 
ATOM     23  O   LIG d   1     -11.479  79.073 120.186  0.00  0.00    -0.241 OA
ATOM     24  O   LIG d   1     -10.840  80.699 118.916  0.00  0.00    -0.241 OA
ENDBRANCH   3  22
TORSDOF 7
ENDMDL
MODEL 2
REMARK VINA RESULT:      -5.7      2.628      5.946
REMARK  7 active torsions:
REMARK  status: ('A' for Active; 'I' for Inactive)
REMARK    1  A    between atoms: C_2  and  C_3 
REMARK    2  A    between atoms: C_3  and  O_6 
REMARK    3  A    between atoms: C_3  and  C_4 
REMARK    4  A    between atoms: C_7  and  O_6 
REMARK    5  A    between atoms: C_9  and  C_10 
REMARK    6  A    between atoms: N_15  and  C_14 
REMARK    7  A    between atoms: N_20  and  C_19 
REMARK       I    between atoms: C_22  and  N_20 
ROOT
ATOM      1  C   LIG d   1      -8.336  74.761 117.594  0.00  0.00     0.161 C 
ATOM      2  C   LIG d   1      -7.202  74.933 116.782  0.00  0.00     0.016 C 
ATOM      3  C   LIG d   1      -6.555  73.868 116.113  0.00  0.00     0.038 C 
ATOM      4  C   LIG d   1      -7.092  72.572 116.089  0.00  0.00     0.028 C 
ATOM      5  C   LIG d   1      -7.953  72.251 117.306  0.00  0.00    -0.047 C 
ATOM      6  C   LIG d   1      -9.001  73.372 117.490  0.00  0.00     0.091 C 
ENDROOT
BRANCH   1   7
ATOM      7  O   LIG d   1      -9.296  75.799 117.317  0.00  0.00    -0.368 OA
BRANCH   7   8
ATOM      8  C   LIG d   1      -9.393  76.857 118.302  0.00  0.00     0.119 C 
BRANCH   8   9
ATOM      9  C   LIG d   1     -10.867  77.301 118.362  0.00  0.00     0.028 C 
ATOM     10  C   LIG d   1     -11.529  76.958 119.707  0.00  0.00     0.006 C 
ENDBRANCH   8   9
BRANCH   8  11
ATOM     11  C   LIG d   1      -8.612  78.100 117.863  0.00  0.00     0.028 C 
ATOM     12  C   LIG d   1      -9.282  79.411 118.303  0.00  0.00     0.006 C 
ENDBRANCH   8  11
ENDBRANCH   7   8
ENDBRANCH   1   7
BRANCH   6  13
ATOM     13  N   LIG d   1      -9.830  73.179 118.708  0.00  0.00    -0.311 N 
ATOM     14  C   LIG d   1     -11.133  73.450 118.758  0.00  0.00     0.210 C 
ATOM     15  C   LIG d   1     -11.795  73.198 120.117  0.00  0.00     0.109 C 
ATOM     16  O   LIG d   1     -11.811  73.845 117.798  0.00  0.00    -0.276 OA
ATOM     17  H   LIG d   1      -9.367  72.832 119.525  0.00  0.00     0.149 HD
ENDBRANCH   6  13
BRANCH   5  18
ATOM     18  N   LIG d   1      -8.559  70.924 117.085  0.00  0.00     0.381 N 
ATOM     19  H   LIG d   1      -9.519  70.938 117.369  0.00  0.00    -0.090 HD
ATOM     20  H   LIG d   1      -8.074  70.247 117.647  0.00  0.00    -0.090 HD
ATOM     21  H   LIG d   1      -8.494  70.675 116.123  0.00  0.00    -0.090 HD
ENDBRANCH   5  18
BRANCH   3  22
ATOM     22  C   LIG d   1      -5.336  74.087 115.491  0.00  0.00     0.382 C 
ATOM     23  O   LIG d   1      -4.316  74.332 116.180  0.00  0.00    -0.241 OA
ATOM     24  O   LIG d   1      -5.251  74.086 114.249  0.00  0.00    -0.241 OA
ENDBRANCH   3  22
TORSDOF 7
ENDMDL
MODEL 3
REMARK VINA RESULT:      -5.6      2.592      4.811
REMARK  7 active torsions:
REMARK  status: ('A' for Active; 'I' for Inactive)
REMARK    1  A    between atoms: C_2  and  C_3 
REMARK    2  A    between atoms: C_3  and  O_6 
REMARK    3  A    between atoms: C_3  and  C_4 
REMARK    4  A    between atoms: C_7  and  O_6 
REMARK    5  A    between atoms: C_9  and  C_10 
REMARK    6  A    between atoms: N_15  and  C_14 
REMARK    7  A    between atoms: N_20  and  C_19 
REMARK       I    between atoms: C_22  and  N_20 
ROOT
ATOM      1  C   LIG d   1      -8.392  75.232 117.086  0.00  0.00     0.161 C 
ATOM      2  C   LIG d   1      -7.614  74.924 115.957  0.00  0.00     0.016 C 
ATOM      3  C   LIG d   1      -6.321  75.453 115.736  0.00  0.00     0.038 C 
ATOM      4  C   LIG d   1      -5.654  76.211 116.709  0.00  0.00     0.028 C 
ATOM      5  C   LIG d   1      -6.596  76.961 117.644  0.00  0.00    -0.047 C 
ATOM      6  C   LIG d   1      -7.636  75.969 118.212  0.00  0.00     0.091 C 
ENDROOT
BRANCH   1   7
ATOM      7  O   LIG d   1      -9.007  74.033 117.597  0.00  0.00    -0.368 OA
BRANCH   7   8
ATOM      8  C   LIG d   1     -10.412  73.857 117.293  0.00  0.00     0.119 C 
BRANCH   8   9
ATOM      9  C   LIG d   1     -10.954  75.216 116.808  0.00  0.00     0.028 C 
ATOM     10  C   LIG d   1     -12.082  75.752 117.705  0.00  0.00     0.006 C 
ENDBRANCH   8   9
BRANCH   8  11
ATOM     11  C   LIG d   1     -11.218  73.526 118.553  0.00  0.00     0.028 C 
ATOM     12  C   LIG d   1     -10.521  72.492 119.451  0.00  0.00     0.006 C 
ENDBRANCH   8  11
ENDBRANCH   7   8
ENDBRANCH   1   7
BRANCH   6  13
ATOM     13  N   LIG d   1      -8.648  76.637 119.070  0.00  0.00    -0.311 N 
ATOM     14  C   LIG d   1      -9.043  76.156 120.248  0.00  0.00     0.210 C 
ATOM     15  C   LIG d   1     -10.111  76.991 120.962  0.00  0.00     0.109 C 
ATOM     16  O   LIG d   1      -8.587  75.134 120.783  0.00  0.00    -0.276 OA
ATOM     17  H   LIG d   1      -9.047  77.489 118.727  0.00  0.00     0.149 HD
ENDBRANCH   6  13
BRANCH   5  18
ATOM     18  N   LIG d   1      -5.773  77.597 118.690  0.00  0.00     0.381 N 
ATOM     19  H   LIG d   1      -6.029  78.559 118.785  0.00  0.00    -0.090 HD
ATOM     20  H   LIG d   1      -4.807  77.554 118.415  0.00  0.00    -0.090 HD
ATOM     21  H   LIG d   1      -5.900  77.125 119.558  0.00  0.00    -0.090 HD
ENDBRANCH   5  18
BRANCH   3  22
ATOM     22  C   LIG d   1      -5.699  75.257 114.512  0.00  0.00     0.382 C 
ATOM     23  O   LIG d   1      -5.274  74.118 114.201  0.00  0.00    -0.241 OA
ATOM     24  O   LIG d   1      -5.518  76.213 113.735  0.00  0.00    -0.241 OA
ENDBRANCH   3  22
TORSDOF 7
ENDMDL
MODEL 4
REMARK VINA RESULT:      -5.3      2.205      4.465
REMARK  7 active torsions:
REMARK  status: ('A' for Active; 'I' for Inactive)
REMARK    1  A    between atoms: C_2  and  C_3 
REMARK    2  A    between atoms: C_3  and  O_6 
REMARK    3  A    between atoms: C_3  and  C_4 
REMARK    4  A    between atoms: C_7  and  O_6 
REMARK    5  A    between atoms: C_9  and  C_10 
REMARK    6  A    between atoms: N_15  and  C_14 
REMARK    7  A    between atoms: N_20  and  C_19 
REMARK       I    between atoms: C_22  and  N_20 
ROOT
ATOM      1  C   LIG d   1      -9.305  75.525 116.745  0.00  0.00     0.161 C 
ATOM      2  C   LIG d   1     -10.566  75.509 117.364  0.00  0.00     0.016 C 
ATOM      3  C   LIG d   1     -11.087  74.380 118.037  0.00  0.00     0.038 C 
ATOM      4  C   LIG d   1     -10.315  73.232 118.268  0.00  0.00     0.028 C 
ATOM      5  C   LIG d   1      -9.223  73.017 117.226  0.00  0.00    -0.047 C 
ATOM      6  C   LIG d   1      -8.403  74.320 117.082  0.00  0.00     0.091 C 
ENDROOT
BRANCH   1   7
ATOM      7  O   LIG d   1      -8.626  76.760 117.051  0.00  0.00    -0.368 OA
BRANCH   7   8
ATOM      8  C   LIG d   1      -8.933  77.354 118.336  0.00  0.00     0.119 C 
BRANCH   8   9
ATOM      9  C   LIG d   1      -8.959  78.883 118.145  0.00  0.00     0.028 C 
ATOM     10  C   LIG d   1     -10.305  79.503 118.556  0.00  0.00     0.006 C 
ENDBRANCH   8   9
BRANCH   8  11
ATOM     11  C   LIG d   1      -7.818  77.092 119.352  0.00  0.00     0.028 C 
ATOM     12  C   LIG d   1      -6.626  78.048 119.188  0.00  0.00     0.006 C 
ENDBRANCH   8  11
ENDBRANCH   7   8
ENDBRANCH   1   7
BRANCH   6  13
ATOM     13  N   LIG d   1      -7.366  74.223 116.022  0.00  0.00    -0.311 N 
ATOM     14  C   LIG d   1      -6.147  74.747 116.138  0.00  0.00     0.210 C 
ATOM     15  C   LIG d   1      -5.240  74.550 114.919  0.00  0.00     0.109 C 
ATOM     16  O   LIG d   1      -5.720  75.327 117.147  0.00  0.00    -0.276 OA
ATOM     17  H   LIG d   1      -7.618  73.741 115.181  0.00  0.00     0.149 HD
ENDBRANCH   6  13
BRANCH   5  18
ATOM     18  N   LIG d   1      -8.409  71.867 117.664  0.00  0.00     0.381 N 
ATOM     19  H   LIG d   1      -7.595  71.790 117.088  0.00  0.00    -0.090 HD
ATOM     20  H   LIG d   1      -8.951  71.027 117.559  0.00  0.00    -0.090 HD
ATOM     21  H   LIG d   1      -8.142  71.982 118.616  0.00  0.00    -0.090 HD
ENDBRANCH   5  18
BRANCH   3  22
ATOM     22  C   LIG d   1     -12.410  74.379 118.453  0.00  0.00     0.382 C 
ATOM     23  O   LIG d   1     -12.754  73.695 119.447  0.00  0.00    -0.241 OA
ATOM     24  O   LIG d   1     -13.272  75.017 117.819  0.00  0.00    -0.241 OA
ENDBRANCH   3  22
TORSDOF 7
ENDMDL
MODEL 5
REMARK VINA RESULT:      -5.1     11.319     13.741
REMARK  7 active torsions:
REMARK  status: ('A' for Active; 'I' for Inactive)
REMARK    1  A    between atoms: C_2  and  C_3 
REMARK    2  A    between atoms: C_3  and  O_6 
REMARK    3  A    between atoms: C_3  and  C_4 
REMARK    4  A    between atoms: C_7  and  O_6 
REMARK    5  A    between atoms: C_9  and  C_10 
REMARK    6  A    between atoms: N_15  and  C_14 
REMARK    7  A    between atoms: N_20  and  C_19 
REMARK       I    between atoms: C_22  and  N_20 
ROOT
ATOM      1  C   LIG d   1     -16.043  64.684 116.651  0.00  0.00     0.161 C 
ATOM      2  C   LIG d   1     -16.091  65.930 116.003  0.00  0.00     0.016 C 
ATOM      3  C   LIG d   1     -15.428  67.083 116.482  0.00  0.00     0.038 C 
ATOM      4  C   LIG d   1     -14.541  67.030 117.568  0.00  0.00     0.028 C 
ATOM      5  C   LIG d   1     -14.855  65.909 118.553  0.00  0.00    -0.047 C 
ATOM      6  C   LIG d   1     -14.991  64.580 117.775  0.00  0.00     0.091 C 
ENDROOT
BRANCH   1   7
ATOM      7  O   LIG d   1     -15.845  63.636 115.681  0.00  0.00    -0.368 OA
BRANCH   7   8
ATOM      8  C   LIG d   1     -16.984  62.778 115.429  0.00  0.00     0.119 C 
BRANCH   8   9
ATOM      9  C   LIG d   1     -18.204  63.411 116.125  0.00  0.00     0.028 C 
ATOM     10  C   LIG d   1     -19.280  63.867 115.124  0.00  0.00     0.006 C 
ENDBRANCH   8   9
BRANCH   8  11
ATOM     11  C   LIG d   1     -16.807  61.408 116.090  0.00  0.00     0.028 C 
ATOM     12  C   LIG d   1     -17.835  61.145 117.202  0.00  0.00     0.006 C 
ENDBRANCH   8  11
ENDBRANCH   7   8
ENDBRANCH   1   7
BRANCH   6  13
ATOM     13  N   LIG d   1     -15.381  63.447 118.653  0.00  0.00    -0.311 N 
ATOM     14  C   LIG d   1     -14.576  62.422 118.929  0.00  0.00     0.210 C 
ATOM     15  C   LIG d   1     -15.183  61.350 119.839  0.00  0.00     0.109 C 
ATOM     16  O   LIG d   1     -13.406  62.315 118.532  0.00  0.00    -0.276 OA
ATOM     17  H   LIG d   1     -16.303  63.468 119.043  0.00  0.00     0.149 HD
ENDBRANCH   6  13
BRANCH   5  18
ATOM     18  N   LIG d   1     -13.776  65.883 119.558  0.00  0.00     0.381 N 
ATOM     19  H   LIG d   1     -13.876  65.077 120.142  0.00  0.00    -0.090 HD
ATOM     20  H   LIG d   1     -13.849  66.702 120.135  0.00  0.00    -0.090 HD
ATOM     21  H   LIG d   1     -12.889  65.866 119.105  0.00  0.00    -0.090 HD
ENDBRANCH   5  18
BRANCH   3  22
ATOM     22  C   LIG d   1     -15.680  68.314 115.897  0.00  0.00     0.382 C 
ATOM     23  O   LIG d   1     -15.000  68.691 114.912  0.00  0.00    -0.241 OA
ATOM     24  O   LIG d   1     -16.549  69.071 116.368  0.00  0.00    -0.241 OA
ENDBRANCH   3  22
TORSDOF 7
ENDMDL
MODEL 6
REMARK VINA RESULT:      -4.9     12.095     15.011
REMARK  7 active torsions:
REMARK  status: ('A' for Active; 'I' for Inactive)
REMARK    1  A    between atoms: C_2  and  C_3 
REMARK    2  A    between atoms: C_3  and  O_6 
REMARK    3  A    between atoms: C_3  and  C_4 
REMARK    4  A    between atoms: C_7  and  O_6 
REMARK    5  A    between atoms: C_9  and  C_10 
REMARK    6  A    between atoms: N_15  and  C_14 
REMARK    7  A    between atoms: N_20  and  C_19 
REMARK       I    between atoms: C_22  and  N_20 
ROOT
ATOM      1  C   LIG d   1     -17.267  64.970 116.632  0.00  0.00     0.161 C 
ATOM      2  C   LIG d   1     -16.202  64.604 117.472  0.00  0.00     0.016 C 
ATOM      3  C   LIG d   1     -15.729  63.278 117.595  0.00  0.00     0.038 C 
ATOM      4  C   LIG d   1     -16.192  62.245 116.766  0.00  0.00     0.028 C 
ATOM      5  C   LIG d   1     -17.614  62.466 116.261  0.00  0.00    -0.047 C 
ATOM      6  C   LIG d   1     -17.712  63.877 115.638  0.00  0.00     0.091 C 
ENDROOT
BRANCH   1   7
ATOM      7  O   LIG d   1     -16.938  66.185 115.928  0.00  0.00    -0.368 OA
BRANCH   7   8
ATOM      8  C   LIG d   1     -15.565  66.313 115.485  0.00  0.00     0.119 C 
BRANCH   8   9
ATOM      9  C   LIG d   1     -15.090  67.731 115.854  0.00  0.00     0.028 C 
ATOM     10  C   LIG d   1     -16.220  68.596 116.436  0.00  0.00     0.006 C 
ENDBRANCH   8   9
BRANCH   8  11
ATOM     11  C   LIG d   1     -15.463  66.235 113.959  0.00  0.00     0.028 C 
ATOM     12  C   LIG d   1     -15.444  67.619 113.291  0.00  0.00     0.006 C 
ENDBRANCH   8  11
ENDBRANCH   7   8
ENDBRANCH   1   7
BRANCH   6  13
ATOM     13  N   LIG d   1     -19.091  64.207 115.194  0.00  0.00    -0.311 N 
ATOM     14  C   LIG d   1     -19.383  64.648 113.971  0.00  0.00     0.210 C 
ATOM     15  C   LIG d   1     -20.865  64.947 113.728  0.00  0.00     0.109 C 
ATOM     16  O   LIG d   1     -18.559  64.789 113.055  0.00  0.00    -0.276 OA
ATOM     17  H   LIG d   1     -19.826  64.092 115.865  0.00  0.00     0.149 HD
ENDBRANCH   6  13
BRANCH   5  18
ATOM     18  N   LIG d   1     -17.919  61.388 115.301  0.00  0.00     0.381 N 
ATOM     19  H   LIG d   1     -18.006  60.518 115.786  0.00  0.00    -0.090 HD
ATOM     20  H   LIG d   1     -17.160  61.310 114.648  0.00  0.00    -0.090 HD
ATOM     21  H   LIG d   1     -18.765  61.593 114.816  0.00  0.00    -0.090 HD
ENDBRANCH   5  18
BRANCH   3  22
ATOM     22  C   LIG d   1     -14.808  62.965 118.583  0.00  0.00     0.382 C 
ATOM     23  O   LIG d   1     -15.063  63.228 119.783  0.00  0.00    -0.241 OA
ATOM     24  O   LIG d   1     -13.707  62.465 118.286  0.00  0.00    -0.241 OA
ENDBRANCH   3  22
TORSDOF 7
ENDMDL
MODEL 7
REMARK VINA RESULT:      -4.8      2.525      4.807
REMARK  7 active torsions:
REMARK  status: ('A' for Active; 'I' for Inactive)
REMARK    1  A    between atoms: C_2  and  C_3 
REMARK    2  A    between atoms: C_3  and  O_6 
REMARK    3  A    between atoms: C_3  and  C_4 
REMARK    4  A    between atoms: C_7  and  O_6 
REMARK    5  A    between atoms: C_9  and  C_10 
REMARK    6  A    between atoms: N_15  and  C_14 
REMARK    7  A    between atoms: N_20  and  C_19 
REMARK       I    between atoms: C_22  and  N_20 
ROOT
ATOM      1  C   LIG d   1      -8.127  76.164 116.787  0.00  0.00     0.161 C 
ATOM      2  C   LIG d   1      -9.348  75.682 117.287  0.00  0.00     0.016 C 
ATOM      3  C   LIG d   1      -9.628  74.307 117.464  0.00  0.00     0.038 C 
ATOM      4  C   LIG d   1      -8.643  73.322 117.295  0.00  0.00     0.028 C 
ATOM      5  C   LIG d   1      -7.551  73.721 116.308  0.00  0.00    -0.047 C 
ATOM      6  C   LIG d   1      -7.002  75.111 116.702  0.00  0.00     0.091 C 
ENDROOT
BRANCH   1   7
ATOM      7  O   LIG d   1      -7.695  77.298 117.565  0.00  0.00    -0.368 OA
BRANCH   7   8
ATOM      8  C   LIG d   1      -6.901  76.999 118.740  0.00  0.00     0.119 C 
BRANCH   8   9
ATOM      9  C   LIG d   1      -7.695  77.483 119.969  0.00  0.00     0.028 C 
ATOM     10  C   LIG d   1      -8.277  76.319 120.788  0.00  0.00     0.006 C 
ENDBRANCH   8   9
BRANCH   8  11
ATOM     11  C   LIG d   1      -5.600  77.806 118.753  0.00  0.00     0.028 C 
ATOM     12  C   LIG d   1      -5.490  78.780 117.569  0.00  0.00     0.006 C 
ENDBRANCH   8  11
ENDBRANCH   7   8
ENDBRANCH   1   7
BRANCH   6  13
ATOM     13  N   LIG d   1      -5.988  75.614 115.738  0.00  0.00    -0.311 N 
ATOM     14  C   LIG d   1      -4.676  75.474 115.916  0.00  0.00     0.210 C 
ATOM     15  C   LIG d   1      -3.805  76.083 114.812  0.00  0.00     0.109 C 
ATOM     16  O   LIG d   1      -4.150  74.876 116.867  0.00  0.00    -0.276 OA
ATOM     17  H   LIG d   1      -6.328  76.085 114.923  0.00  0.00     0.149 HD
ENDBRANCH   6  13
BRANCH   5  18
ATOM     18  N   LIG d   1      -6.522  72.665 116.331  0.00  0.00     0.381 N 
ATOM     19  H   LIG d   1      -6.410  72.322 117.265  0.00  0.00    -0.090 HD
ATOM     20  H   LIG d   1      -5.647  73.057 116.032  0.00  0.00    -0.090 HD
ATOM     21  H   LIG d   1      -6.785  71.919 115.725  0.00  0.00    -0.090 HD
ENDBRANCH   5  18
BRANCH   3  22
ATOM     22  C   LIG d   1     -10.917  73.903 117.777  0.00  0.00     0.382 C 
ATOM     23  O   LIG d   1     -11.099  72.933 118.551  0.00  0.00    -0.241 OA
ATOM     24  O   LIG d   1     -11.899  74.468 117.260  0.00  0.00    -0.241 OA
ENDBRANCH   3  22
TORSDOF 7
ENDMDL
MODEL 8
REMARK VINA RESULT:      -4.8     11.009     13.521
REMARK  7 active torsions:
REMARK  status: ('A' for Active; 'I' for Inactive)
REMARK    1  A    between atoms: C_2  and  C_3 
REMARK    2  A    between atoms: C_3  and  O_6 
REMARK    3  A    between atoms: C_3  and  C_4 
REMARK    4  A    between atoms: C_7  and  O_6 
REMARK    5  A    between atoms: C_9  and  C_10 
REMARK    6  A    between atoms: N_15  and  C_14 
REMARK    7  A    between atoms: N_20  and  C_19 
REMARK       I    between atoms: C_22  and  N_20 
ROOT
ATOM      1  C   LIG d   1     -16.214  65.423 116.633  0.00  0.00     0.161 C 
ATOM      2  C   LIG d   1     -15.623  66.073 115.537  0.00  0.00     0.016 C 
ATOM      3  C   LIG d   1     -15.686  67.471 115.335  0.00  0.00     0.038 C 
ATOM      4  C   LIG d   1     -16.219  68.336 116.302  0.00  0.00     0.028 C 
ATOM      5  C   LIG d   1     -17.275  67.681 117.186  0.00  0.00    -0.047 C 
ATOM      6  C   LIG d   1     -16.704  66.362 117.755  0.00  0.00     0.091 C 
ENDROOT
BRANCH   1   7
ATOM      7  O   LIG d   1     -15.306  64.438 117.165  0.00  0.00    -0.368 OA
BRANCH   7   8
ATOM      8  C   LIG d   1     -15.602  63.057 116.841  0.00  0.00     0.119 C 
BRANCH   8   9
ATOM      9  C   LIG d   1     -17.097  62.977 116.479  0.00  0.00     0.028 C 
ATOM     10  C   LIG d   1     -17.885  62.063 117.433  0.00  0.00     0.006 C 
ENDBRANCH   8   9
BRANCH   8  11
ATOM     11  C   LIG d   1     -15.432  62.150 118.063  0.00  0.00     0.028 C 
ATOM     12  C   LIG d   1     -14.249  62.564 118.953  0.00  0.00     0.006 C 
ENDBRANCH   8  11
ENDBRANCH   7   8
ENDBRANCH   1   7
BRANCH   6  13
ATOM     13  N   LIG d   1     -17.702  65.614 118.564  0.00  0.00    -0.311 N 
ATOM     14  C   LIG d   1     -17.424  65.061 119.743  0.00  0.00     0.210 C 
ATOM     15  C   LIG d   1     -18.591  64.319 120.401  0.00  0.00     0.109 C 
ATOM     16  O   LIG d   1     -16.330  65.142 120.322  0.00  0.00    -0.276 OA
ATOM     17  H   LIG d   1     -18.624  65.527 118.183  0.00  0.00     0.149 HD
ENDBRANCH   6  13
BRANCH   5  18
ATOM     18  N   LIG d   1     -17.644  68.651 118.234  0.00  0.00     0.381 N 
ATOM     19  H   LIG d   1     -17.913  69.518 117.813  0.00  0.00    -0.090 HD
ATOM     20  H   LIG d   1     -16.843  68.819 118.818  0.00  0.00    -0.090 HD
ATOM     21  H   LIG d   1     -18.394  68.292 118.782  0.00  0.00    -0.090 HD
ENDBRANCH   5  18
BRANCH   3  22
ATOM     22  C   LIG d   1     -15.248  68.012 114.136  0.00  0.00     0.382 C 
ATOM     23  O   LIG d   1     -15.494  67.425 113.056  0.00  0.00    -0.241 OA
ATOM     24  O   LIG d   1     -14.571  69.058 114.125  0.00  0.00    -0.241 OA
ENDBRANCH   3  22
TORSDOF 7
ENDMDL
MODEL 9
REMARK VINA RESULT:      -4.8     11.487     13.365
REMARK  7 active torsions:
REMARK  status: ('A' for Active; 'I' for Inactive)
REMARK    1  A    between atoms: C_2  and  C_3 
REMARK    2  A    between atoms: C_3  and  O_6 
REMARK    3  A    between atoms: C_3  and  C_4 
REMARK    4  A    between atoms: C_7  and  O_6 
REMARK    5  A    between atoms: C_9  and  C_10 
REMARK    6  A    between atoms: N_15  and  C_14 
REMARK    7  A    between atoms: N_20  and  C_19 
REMARK       I    between atoms: C_22  and  N_20 
ROOT
ATOM      1  C   LIG d   1     -14.946  66.040 117.496  0.00  0.00     0.161 C 
ATOM      2  C   LIG d   1     -14.960  67.057 116.527  0.00  0.00     0.016 C 
ATOM      3  C   LIG d   1     -15.479  66.883 115.223  0.00  0.00     0.038 C 
ATOM      4  C   LIG d   1     -16.162  65.717 114.847  0.00  0.00     0.028 C 
ATOM      5  C   LIG d   1     -15.726  64.481 115.627  0.00  0.00    -0.047 C 
ATOM      6  C   LIG d   1     -15.786  64.795 117.139  0.00  0.00     0.091 C 
ENDROOT
BRANCH   1   7
ATOM      7  O   LIG d   1     -15.356  66.573 118.770  0.00  0.00    -0.368 OA
BRANCH   7   8
ATOM      8  C   LIG d   1     -16.767  66.466 119.082  0.00  0.00     0.119 C 
BRANCH   8   9
ATOM      9  C   LIG d   1     -17.401  67.849 118.837  0.00  0.00     0.028 C 
ATOM     10  C   LIG d   1     -18.357  67.852 117.632  0.00  0.00     0.006 C 
ENDBRANCH   8   9
BRANCH   8  11
ATOM     11  C   LIG d   1     -16.989  66.176 120.569  0.00  0.00     0.028 C 
ATOM     12  C   LIG d   1     -15.875  65.311 121.180  0.00  0.00     0.006 C 
ENDBRANCH   8  11
ENDBRANCH   7   8
ENDBRANCH   1   7
BRANCH   6  13
ATOM     13  N   LIG d   1     -15.295  63.667 117.973  0.00  0.00    -0.311 N 
ATOM     14  C   LIG d   1     -16.096  62.743 118.500  0.00  0.00     0.210 C 
ATOM     15  C   LIG d   1     -15.387  61.678 119.343  0.00  0.00     0.109 C 
ATOM     16  O   LIG d   1     -17.322  62.685 118.324  0.00  0.00    -0.276 OA
ATOM     17  H   LIG d   1     -14.309  63.620 118.141  0.00  0.00     0.149 HD
ENDBRANCH   6  13
BRANCH   5  18
ATOM     18  N   LIG d   1     -16.611  63.369 115.232  0.00  0.00     0.381 N 
ATOM     19  H   LIG d   1     -16.315  62.996 114.352  0.00  0.00    -0.090 HD
ATOM     20  H   LIG d   1     -17.547  63.720 115.127  0.00  0.00    -0.090 HD
ATOM     21  H   LIG d   1     -16.593  62.655 115.927  0.00  0.00    -0.090 HD
ENDBRANCH   5  18
BRANCH   3  22
ATOM     22  C   LIG d   1     -15.283  67.869 114.268  0.00  0.00     0.382 C 
ATOM     23  O   LIG d   1     -15.047  69.048 114.624  0.00  0.00    -0.241 OA
ATOM     24  O   LIG d   1     -15.383  67.602 113.056  0.00  0.00    -0.241 OA
ENDBRANCH   3  22
TORSDOF 7
ENDMDL
