MODEL 1
REMARK VINA RESULT:      -5.9      0.000      0.000
REMARK  7 active torsions:
REMARK  status: ('A' for Active; 'I' for Inactive)
REMARK    1  A    between atoms: C_2  and  C_3 
REMARK    2  A    between atoms: C_3  and  O_6 
REMARK    3  A    between atoms: C_3  and  C_4 
REMARK    4  A    between atoms: C_7  and  O_6 
REMARK    5  A    between atoms: C_9  and  C_10 
REMARK    6  A    between atoms: N_15  and  C_14 
REMARK    7  A    between atoms: N_20  and  C_19 
REMARK       I    between atoms: C_22  and  N_20 
ROOT
ATOM      1  C   LIG d   1      -6.679  77.948 117.098  0.00  0.00     0.161 C 
ATOM      2  C   LIG d   1      -5.926  77.747 115.929  0.00  0.00     0.016 C 
ATOM      3  C   LIG d   1      -5.899  76.524 115.221  0.00  0.00     0.038 C 
ATOM      4  C   LIG d   1      -6.748  75.458 115.551  0.00  0.00     0.028 C 
ATOM      5  C   LIG d   1      -7.153  75.438 117.021  0.00  0.00    -0.047 C 
ATOM      6  C   LIG d   1      -7.697  76.831 117.410  0.00  0.00     0.091 C 
ENDROOT
BRANCH   1   7
ATOM      7  O   LIG d   1      -7.340  79.227 117.040  0.00  0.00    -0.368 OA
BRANCH   7   8
ATOM      8  C   LIG d   1      -6.568  80.365 117.495  0.00  0.00     0.119 C 
BRANCH   8   9
ATOM      9  C   LIG d   1      -6.068  80.046 118.918  0.00  0.00     0.028 C 
ATOM     10  C   LIG d   1      -5.113  81.123 119.459  0.00  0.00     0.006 C 
ENDBRANCH   8   9
BRANCH   8  11
ATOM     11  C   LIG d   1      -7.446  81.611 117.643  0.00  0.00     0.028 C 
ATOM     12  C   LIG d   1      -8.907  81.274 117.980  0.00  0.00     0.006 C 
ENDBRANCH   8  11
ENDBRANCH   7   8
ENDBRANCH   1   7
BRANCH   6  13
ATOM     13  N   LIG d   1      -8.038  76.924 118.854  0.00  0.00    -0.311 N 
ATOM     14  C   LIG d   1      -9.194  77.406 119.305  0.00  0.00     0.210 C 
ATOM     15  C   LIG d   1      -9.334  77.430 120.830  0.00  0.00     0.109 C 
ATOM     16  O   LIG d   1     -10.131  77.785 118.586  0.00  0.00    -0.276 OA
ATOM     17  H   LIG d   1      -7.347  76.608 119.506  0.00  0.00     0.149 HD
ENDBRANCH   6  13
BRANCH   5  18
ATOM     18  N   LIG d   1      -8.144  74.360 117.196  0.00  0.00     0.381 N 
ATOM     19  H   LIG d   1      -7.695  73.542 117.556  0.00  0.00    -0.090 HD
ATOM     20  H   LIG d   1      -8.540  74.134 116.300  0.00  0.00    -0.090 HD
ATOM     21  H   LIG d   1      -8.862  74.655 117.820  0.00  0.00    -0.090 HD
ENDBRANCH   5  18
BRANCH   3  22
ATOM     22  C   LIG d   1      -4.986  76.346 114.192  0.00  0.00     0.382 C 
ATOM     23  O   LIG d   1      -5.115  76.985 113.121  0.00  0.00    -0.241 OA
ATOM     24  O   LIG d   1      -4.060  75.520 114.306  0.00  0.00    -0.241 OA
ENDBRANCH   3  22
TORSDOF 7
ENDMDL
MODEL 2
REMARK VINA RESULT:      -5.7      2.453      6.060
REMARK  7 active torsions:
REMARK  status: ('A' for Active; 'I' for Inactive)
REMARK    1  A    between atoms: C_2  and  C_3 
REMARK    2  A    between atoms: C_3  and  O_6 
REMARK    3  A    between atoms: C_3  and  C_4 
REMARK    4  A    between atoms: C_7  and  O_6 
REMARK    5  A    between atoms: C_9  and  C_10 
REMARK    6  A    between atoms: N_15  and  C_14 
REMARK    7  A    between atoms: N_20  and  C_19 
REMARK       I    between atoms: C_22  and  N_20 
ROOT
ATOM      1  C   LIG d   1      -6.076  76.848 117.939  0.00  0.00     0.161 C 
ATOM      2  C   LIG d   1      -7.404  76.547 118.283  0.00  0.00     0.016 C 
ATOM      3  C   LIG d   1      -8.425  77.522 118.371  0.00  0.00     0.038 C 
ATOM      4  C   LIG d   1      -8.218  78.850 117.971  0.00  0.00     0.028 C 
ATOM      5  C   LIG d   1      -6.768  79.303 118.099  0.00  0.00    -0.047 C 
ATOM      6  C   LIG d   1      -5.857  78.274 117.391  0.00  0.00     0.091 C 
ENDROOT
BRANCH   1   7
ATOM      7  O   LIG d   1      -5.580  75.870 117.003  0.00  0.00    -0.368 OA
BRANCH   7   8
ATOM      8  C   LIG d   1      -6.572  75.235 116.160  0.00  0.00     0.119 C 
BRANCH   8   9
ATOM      9  C   LIG d   1      -6.139  73.770 115.960  0.00  0.00     0.028 C 
ATOM     10  C   LIG d   1      -7.119  72.775 116.605  0.00  0.00     0.006 C 
ENDBRANCH   8   9
BRANCH   8  11
ATOM     11  C   LIG d   1      -6.586  75.849 114.756  0.00  0.00     0.028 C 
ATOM     12  C   LIG d   1      -5.175  76.129 114.215  0.00  0.00     0.006 C 
ENDBRANCH   8  11
ENDBRANCH   7   8
ENDBRANCH   1   7
BRANCH   6  13
ATOM     13  N   LIG d   1      -4.414  78.597 117.542  0.00  0.00    -0.311 N 
ATOM     14  C   LIG d   1      -3.645  79.003 116.533  0.00  0.00     0.210 C 
ATOM     15  C   LIG d   1      -2.180  79.263 116.901  0.00  0.00     0.109 C 
ATOM     16  O   LIG d   1      -4.043  79.205 115.376  0.00  0.00    -0.276 OA
ATOM     17  H   LIG d   1      -4.015  78.491 118.454  0.00  0.00     0.149 HD
ENDBRANCH   6  13
BRANCH   5  18
ATOM     18  N   LIG d   1      -6.670  80.656 117.521  0.00  0.00     0.381 N 
ATOM     19  H   LIG d   1      -7.575  80.965 117.226  0.00  0.00    -0.090 HD
ATOM     20  H   LIG d   1      -6.071  80.623 116.715  0.00  0.00    -0.090 HD
ATOM     21  H   LIG d   1      -6.299  81.289 118.195  0.00  0.00    -0.090 HD
ENDBRANCH   5  18
BRANCH   3  22
ATOM     22  C   LIG d   1      -9.659  77.178 118.902  0.00  0.00     0.382 C 
ATOM     23  O   LIG d   1      -9.847  77.237 120.141  0.00  0.00    -0.241 OA
ATOM     24  O   LIG d   1     -10.573  76.767 118.161  0.00  0.00    -0.241 OA
ENDBRANCH   3  22
TORSDOF 7
ENDMDL
MODEL 3
REMARK VINA RESULT:      -5.5     13.129     15.163
REMARK  7 active torsions:
REMARK  status: ('A' for Active; 'I' for Inactive)
REMARK    1  A    between atoms: C_2  and  C_3 
REMARK    2  A    between atoms: C_3  and  O_6 
REMARK    3  A    between atoms: C_3  and  C_4 
REMARK    4  A    between atoms: C_7  and  O_6 
REMARK    5  A    between atoms: C_9  and  C_10 
REMARK    6  A    between atoms: N_15  and  C_14 
REMARK    7  A    between atoms: N_20  and  C_19 
REMARK       I    between atoms: C_22  and  N_20 
ROOT
ATOM      1  C   LIG d   1      -5.805  92.109 118.032  0.00  0.00     0.161 C 
ATOM      2  C   LIG d   1      -5.728  91.270 116.908  0.00  0.00     0.016 C 
ATOM      3  C   LIG d   1      -6.657  91.309 115.842  0.00  0.00     0.038 C 
ATOM      4  C   LIG d   1      -7.645  92.301 115.757  0.00  0.00     0.028 C 
ATOM      5  C   LIG d   1      -8.072  92.850 117.114  0.00  0.00    -0.047 C 
ATOM      6  C   LIG d   1      -6.811  93.272 117.903  0.00  0.00     0.091 C 
ENDROOT
BRANCH   1   7
ATOM      7  O   LIG d   1      -4.494  92.614 118.354  0.00  0.00    -0.368 OA
BRANCH   7   8
ATOM      8  C   LIG d   1      -3.782  91.915 119.405  0.00  0.00     0.119 C 
BRANCH   8   9
ATOM      9  C   LIG d   1      -2.987  92.965 120.204  0.00  0.00     0.028 C 
ATOM     10  C   LIG d   1      -3.714  94.318 120.281  0.00  0.00     0.006 C 
ENDBRANCH   8   9
BRANCH   8  11
ATOM     11  C   LIG d   1      -2.731  90.963 118.827  0.00  0.00     0.028 C 
ATOM     12  C   LIG d   1      -3.127  89.484 118.962  0.00  0.00     0.006 C 
ENDBRANCH   8  11
ENDBRANCH   7   8
ENDBRANCH   1   7
BRANCH   6  13
ATOM     13  N   LIG d   1      -7.132  93.743 119.276  0.00  0.00    -0.311 N 
ATOM     14  C   LIG d   1      -7.322  95.024 119.586  0.00  0.00     0.210 C 
ATOM     15  C   LIG d   1      -7.624  95.294 121.063  0.00  0.00     0.109 C 
ATOM     16  O   LIG d   1      -7.301  95.959 118.771  0.00  0.00    -0.276 OA
ATOM     17  H   LIG d   1      -7.199  93.047 119.992  0.00  0.00     0.149 HD
ENDBRANCH   6  13
BRANCH   5  18
ATOM     18  N   LIG d   1      -9.002  93.969 116.870  0.00  0.00     0.381 N 
ATOM     19  H   LIG d   1      -9.107  94.510 117.705  0.00  0.00    -0.090 HD
ATOM     20  H   LIG d   1      -9.901  93.595 116.621  0.00  0.00    -0.090 HD
ATOM     21  H   LIG d   1      -8.658  94.544 116.133  0.00  0.00    -0.090 HD
ENDBRANCH   5  18
BRANCH   3  22
ATOM     22  C   LIG d   1      -6.627  90.324 114.868  0.00  0.00     0.382 C 
ATOM     23  O   LIG d   1      -5.631  89.566 114.772  0.00  0.00    -0.241 OA
ATOM     24  O   LIG d   1      -7.563  90.211 114.054  0.00  0.00    -0.241 OA
ENDBRANCH   3  22
TORSDOF 7
ENDMDL
MODEL 4
REMARK VINA RESULT:      -5.3      2.397      4.540
REMARK  7 active torsions:
REMARK  status: ('A' for Active; 'I' for Inactive)
REMARK    1  A    between atoms: C_2  and  C_3 
REMARK    2  A    between atoms: C_3  and  O_6 
REMARK    3  A    between atoms: C_3  and  C_4 
REMARK    4  A    between atoms: C_7  and  O_6 
REMARK    5  A    between atoms: C_9  and  C_10 
REMARK    6  A    between atoms: N_15  and  C_14 
REMARK    7  A    between atoms: N_20  and  C_19 
REMARK       I    between atoms: C_22  and  N_20 
ROOT
ATOM      1  C   LIG d   1      -6.790  77.153 116.775  0.00  0.00     0.161 C 
ATOM      2  C   LIG d   1      -8.133  76.916 117.112  0.00  0.00     0.016 C 
ATOM      3  C   LIG d   1      -8.713  75.626 117.139  0.00  0.00     0.038 C 
ATOM      4  C   LIG d   1      -7.944  74.464 116.975  0.00  0.00     0.028 C 
ATOM      5  C   LIG d   1      -6.690  74.681 116.135  0.00  0.00    -0.047 C 
ATOM      6  C   LIG d   1      -5.909  75.888 116.702  0.00  0.00     0.091 C 
ENDROOT
BRANCH   1   7
ATOM      7  O   LIG d   1      -6.219  78.110 117.689  0.00  0.00    -0.368 OA
BRANCH   7   8
ATOM      8  C   LIG d   1      -5.702  79.326 117.096  0.00  0.00     0.119 C 
BRANCH   8   9
ATOM      9  C   LIG d   1      -4.284  79.549 117.658  0.00  0.00     0.028 C 
ATOM     10  C   LIG d   1      -3.881  78.471 118.678  0.00  0.00     0.006 C 
ENDBRANCH   8   9
BRANCH   8  11
ATOM     11  C   LIG d   1      -6.510  80.549 117.538  0.00  0.00     0.028 C 
ATOM     12  C   LIG d   1      -7.424  80.257 118.740  0.00  0.00     0.006 C 
ENDBRANCH   8  11
ENDBRANCH   7   8
ENDBRANCH   1   7
BRANCH   6  13
ATOM     13  N   LIG d   1      -4.711  76.221 115.887  0.00  0.00    -0.311 N 
ATOM     14  C   LIG d   1      -3.490  75.763 116.157  0.00  0.00     0.210 C 
ATOM     15  C   LIG d   1      -2.393  76.245 115.203  0.00  0.00     0.109 C 
ATOM     16  O   LIG d   1      -3.217  74.978 117.078  0.00  0.00    -0.276 OA
ATOM     17  H   LIG d   1      -4.848  76.828 115.103  0.00  0.00     0.149 HD
ENDBRANCH   6  13
BRANCH   5  18
ATOM     18  N   LIG d   1      -5.915  73.427 116.161  0.00  0.00     0.381 N 
ATOM     19  H   LIG d   1      -6.527  72.653 116.323  0.00  0.00    -0.090 HD
ATOM     20  H   LIG d   1      -5.253  73.469 116.916  0.00  0.00    -0.090 HD
ATOM     21  H   LIG d   1      -5.435  73.304 115.296  0.00  0.00    -0.090 HD
ENDBRANCH   5  18
BRANCH   3  22
ATOM     22  C   LIG d   1     -10.085  75.493 117.292  0.00  0.00     0.382 C 
ATOM     23  O   LIG d   1     -10.680  74.515 116.778  0.00  0.00    -0.241 OA
ATOM     24  O   LIG d   1     -10.740  76.360 117.899  0.00  0.00    -0.241 OA
ENDBRANCH   3  22
TORSDOF 7
ENDMDL
MODEL 5
REMARK VINA RESULT:      -5.2     12.865     16.118
REMARK  7 active torsions:
REMARK  status: ('A' for Active; 'I' for Inactive)
REMARK    1  A    between atoms: C_2  and  C_3 
REMARK    2  A    between atoms: C_3  and  O_6 
REMARK    3  A    between atoms: C_3  and  C_4 
REMARK    4  A    between atoms: C_7  and  O_6 
REMARK    5  A    between atoms: C_9  and  C_10 
REMARK    6  A    between atoms: N_15  and  C_14 
REMARK    7  A    between atoms: N_20  and  C_19 
REMARK       I    between atoms: C_22  and  N_20 
ROOT
ATOM      1  C   LIG d   1      -5.153  93.096 118.335  0.00  0.00     0.161 C 
ATOM      2  C   LIG d   1      -5.310  94.205 119.182  0.00  0.00     0.016 C 
ATOM      3  C   LIG d   1      -6.482  94.997 119.218  0.00  0.00     0.038 C 
ATOM      4  C   LIG d   1      -7.640  94.639 118.512  0.00  0.00     0.028 C 
ATOM      5  C   LIG d   1      -7.357  93.815 117.261  0.00  0.00    -0.047 C 
ATOM      6  C   LIG d   1      -6.447  92.625 117.639  0.00  0.00     0.091 C 
ENDROOT
BRANCH   1   7
ATOM      7  O   LIG d   1      -4.550  92.008 119.062  0.00  0.00    -0.368 OA
BRANCH   7   8
ATOM      8  C   LIG d   1      -3.275  91.534 118.560  0.00  0.00     0.119 C 
BRANCH   8   9
ATOM      9  C   LIG d   1      -3.134  90.057 118.976  0.00  0.00     0.028 C 
ATOM     10  C   LIG d   1      -2.817  89.140 117.783  0.00  0.00     0.006 C 
ENDBRANCH   8   9
BRANCH   8  11
ATOM     11  C   LIG d   1      -2.107  92.259 119.236  0.00  0.00     0.028 C 
ATOM     12  C   LIG d   1      -0.931  92.513 118.279  0.00  0.00     0.006 C 
ENDBRANCH   8  11
ENDBRANCH   7   8
ENDBRANCH   1   7
BRANCH   6  13
ATOM     13  N   LIG d   1      -6.052  91.815 116.456  0.00  0.00    -0.311 N 
ATOM     14  C   LIG d   1      -6.752  90.770 116.017  0.00  0.00     0.210 C 
ATOM     15  C   LIG d   1      -6.158  90.063 114.795  0.00  0.00     0.109 C 
ATOM     16  O   LIG d   1      -7.825  90.382 116.503  0.00  0.00    -0.276 OA
ATOM     17  H   LIG d   1      -5.210  92.079 115.983  0.00  0.00     0.149 HD
ENDBRANCH   6  13
BRANCH   5  18
ATOM     18  N   LIG d   1      -8.655  93.395 116.700  0.00  0.00     0.381 N 
ATOM     19  H   LIG d   1      -9.293  94.166 116.708  0.00  0.00    -0.090 HD
ATOM     20  H   LIG d   1      -9.036  92.665 117.275  0.00  0.00    -0.090 HD
ATOM     21  H   LIG d   1      -8.533  93.065 115.768  0.00  0.00    -0.090 HD
ENDBRANCH   5  18
BRANCH   3  22
ATOM     22  C   LIG d   1      -6.488  96.183 119.936  0.00  0.00     0.382 C 
ATOM     23  O   LIG d   1      -7.407  96.413 120.758  0.00  0.00    -0.241 OA
ATOM     24  O   LIG d   1      -5.610  97.045 119.740  0.00  0.00    -0.241 OA
ENDBRANCH   3  22
TORSDOF 7
ENDMDL
MODEL 6
REMARK VINA RESULT:      -5.2     14.029     16.172
REMARK  7 active torsions:
REMARK  status: ('A' for Active; 'I' for Inactive)
REMARK    1  A    between atoms: C_2  and  C_3 
REMARK    2  A    between atoms: C_3  and  O_6 
REMARK    3  A    between atoms: C_3  and  C_4 
REMARK    4  A    between atoms: C_7  and  O_6 
REMARK    5  A    between atoms: C_9  and  C_10 
REMARK    6  A    between atoms: N_15  and  C_14 
REMARK    7  A    between atoms: N_20  and  C_19 
REMARK       I    between atoms: C_22  and  N_20 
ROOT
ATOM      1  C   LIG d   1      -7.192  93.927 117.779  0.00  0.00     0.161 C 
ATOM      2  C   LIG d   1      -7.702  93.300 116.630  0.00  0.00     0.016 C 
ATOM      3  C   LIG d   1      -7.115  92.156 116.042  0.00  0.00     0.038 C 
ATOM      4  C   LIG d   1      -6.057  91.468 116.654  0.00  0.00     0.028 C 
ATOM      5  C   LIG d   1      -5.192  92.354 117.543  0.00  0.00    -0.047 C 
ATOM      6  C   LIG d   1      -6.105  93.125 118.524  0.00  0.00     0.091 C 
ENDROOT
BRANCH   1   7
ATOM      7  O   LIG d   1      -8.271  94.260 118.674  0.00  0.00    -0.368 OA
BRANCH   7   8
ATOM      8  C   LIG d   1      -8.186  95.553 119.322  0.00  0.00     0.119 C 
BRANCH   8   9
ATOM      9  C   LIG d   1      -9.618  95.975 119.703  0.00  0.00     0.028 C 
ATOM     10  C   LIG d   1     -10.547  94.769 119.921  0.00  0.00     0.006 C 
ENDBRANCH   8   9
BRANCH   8  11
ATOM     11  C   LIG d   1      -7.690  96.630 118.353  0.00  0.00     0.028 C 
ATOM     12  C   LIG d   1      -8.772  97.666 118.010  0.00  0.00     0.006 C 
ENDBRANCH   8  11
ENDBRANCH   7   8
ENDBRANCH   1   7
BRANCH   6  13
ATOM     13  N   LIG d   1      -5.345  94.079 119.375  0.00  0.00    -0.311 N 
ATOM     14  C   LIG d   1      -4.893  93.777 120.590  0.00  0.00     0.210 C 
ATOM     15  C   LIG d   1      -4.152  94.912 121.305  0.00  0.00     0.109 C 
ATOM     16  O   LIG d   1      -5.007  92.667 121.132  0.00  0.00    -0.276 OA
ATOM     17  H   LIG d   1      -5.181  94.992 119.000  0.00  0.00     0.149 HD
ENDBRANCH   6  13
BRANCH   5  18
ATOM     18  N   LIG d   1      -4.215  91.483 118.225  0.00  0.00     0.381 N 
ATOM     19  H   LIG d   1      -4.684  90.910 118.898  0.00  0.00    -0.090 HD
ATOM     20  H   LIG d   1      -3.550  92.059 118.710  0.00  0.00    -0.090 HD
ATOM     21  H   LIG d   1      -3.746  90.910 117.559  0.00  0.00    -0.090 HD
ENDBRANCH   5  18
BRANCH   3  22
ATOM     22  C   LIG d   1      -7.561  91.713 114.806  0.00  0.00     0.382 C 
ATOM     23  O   LIG d   1      -7.000  92.112 113.757  0.00  0.00    -0.241 OA
ATOM     24  O   LIG d   1      -8.546  90.955 114.724  0.00  0.00    -0.241 OA
ENDBRANCH   3  22
TORSDOF 7
ENDMDL
MODEL 7
REMARK VINA RESULT:      -5.0      2.003      4.624
REMARK  7 active torsions:
REMARK  status: ('A' for Active; 'I' for Inactive)
REMARK    1  A    between atoms: C_2  and  C_3 
REMARK    2  A    between atoms: C_3  and  O_6 
REMARK    3  A    between atoms: C_3  and  C_4 
REMARK    4  A    between atoms: C_7  and  O_6 
REMARK    5  A    between atoms: C_9  and  C_10 
REMARK    6  A    between atoms: N_15  and  C_14 
REMARK    7  A    between atoms: N_20  and  C_19 
REMARK       I    between atoms: C_22  and  N_20 
ROOT
ATOM      1  C   LIG d   1      -6.908  77.299 116.722  0.00  0.00     0.161 C 
ATOM      2  C   LIG d   1      -8.236  76.994 117.064  0.00  0.00     0.016 C 
ATOM      3  C   LIG d   1      -8.741  75.674 117.119  0.00  0.00     0.038 C 
ATOM      4  C   LIG d   1      -7.908  74.555 116.981  0.00  0.00     0.028 C 
ATOM      5  C   LIG d   1      -6.667  74.823 116.137  0.00  0.00    -0.047 C 
ATOM      6  C   LIG d   1      -5.956  76.085 116.677  0.00  0.00     0.091 C 
ENDROOT
BRANCH   1   7
ATOM      7  O   LIG d   1      -6.393  78.307 117.614  0.00  0.00    -0.368 OA
BRANCH   7   8
ATOM      8  C   LIG d   1      -7.226  78.636 118.752  0.00  0.00     0.119 C 
BRANCH   8   9
ATOM      9  C   LIG d   1      -7.738  80.076 118.551  0.00  0.00     0.028 C 
ATOM     10  C   LIG d   1      -6.816  80.904 117.639  0.00  0.00     0.006 C 
ENDBRANCH   8   9
BRANCH   8  11
ATOM     11  C   LIG d   1      -6.410  78.674 120.048  0.00  0.00     0.028 C 
ATOM     12  C   LIG d   1      -5.065  77.941 119.926  0.00  0.00     0.006 C 
ENDBRANCH   8  11
ENDBRANCH   7   8
ENDBRANCH   1   7
BRANCH   6  13
ATOM     13  N   LIG d   1      -4.778  76.468 115.856  0.00  0.00    -0.311 N 
ATOM     14  C   LIG d   1      -4.857  76.789 114.566  0.00  0.00     0.210 C 
ATOM     15  C   LIG d   1      -3.519  77.132 113.902  0.00  0.00     0.109 C 
ATOM     16  O   LIG d   1      -5.911  76.853 113.916  0.00  0.00    -0.276 OA
ATOM     17  H   LIG d   1      -3.886  76.472 116.312  0.00  0.00     0.149 HD
ENDBRANCH   6  13
BRANCH   5  18
ATOM     18  N   LIG d   1      -5.821  73.616 116.191  0.00  0.00     0.381 N 
ATOM     19  H   LIG d   1      -4.860  73.870 116.080  0.00  0.00    -0.090 HD
ATOM     20  H   LIG d   1      -6.076  73.007 115.433  0.00  0.00    -0.090 HD
ATOM     21  H   LIG d   1      -5.950  73.148 117.061  0.00  0.00    -0.090 HD
ENDBRANCH   5  18
BRANCH   3  22
ATOM     22  C   LIG d   1     -10.104  75.467 117.274  0.00  0.00     0.382 C 
ATOM     23  O   LIG d   1     -10.648  74.463 116.754  0.00  0.00    -0.241 OA
ATOM     24  O   LIG d   1     -10.803  76.293 117.890  0.00  0.00    -0.241 OA
ENDBRANCH   3  22
TORSDOF 7
ENDMDL
MODEL 8
REMARK VINA RESULT:      -4.9     12.886     15.301
REMARK  7 active torsions:
REMARK  status: ('A' for Active; 'I' for Inactive)
REMARK    1  A    between atoms: C_2  and  C_3 
REMARK    2  A    between atoms: C_3  and  O_6 
REMARK    3  A    between atoms: C_3  and  C_4 
REMARK    4  A    between atoms: C_7  and  O_6 
REMARK    5  A    between atoms: C_9  and  C_10 
REMARK    6  A    between atoms: N_15  and  C_14 
REMARK    7  A    between atoms: N_20  and  C_19 
REMARK       I    between atoms: C_22  and  N_20 
ROOT
ATOM      1  C   LIG d   1      -6.034  92.204 117.563  0.00  0.00     0.161 C 
ATOM      2  C   LIG d   1      -5.119  91.145 117.684  0.00  0.00     0.016 C 
ATOM      3  C   LIG d   1      -3.993  91.183 118.538  0.00  0.00     0.038 C 
ATOM      4  C   LIG d   1      -3.787  92.231 119.447  0.00  0.00     0.028 C 
ATOM      5  C   LIG d   1      -4.407  93.551 119.001  0.00  0.00    -0.047 C 
ATOM      6  C   LIG d   1      -5.888  93.310 118.629  0.00  0.00     0.091 C 
ENDROOT
BRANCH   1   7
ATOM      7  O   LIG d   1      -7.380  91.689 117.557  0.00  0.00    -0.368 OA
BRANCH   7   8
ATOM      8  C   LIG d   1      -8.046  91.660 116.271  0.00  0.00     0.119 C 
BRANCH   8   9
ATOM      9  C   LIG d   1      -7.985  90.211 115.750  0.00  0.00     0.028 C 
ATOM     10  C   LIG d   1      -9.158  89.356 116.255  0.00  0.00     0.006 C 
ENDBRANCH   8   9
BRANCH   8  11
ATOM     11  C   LIG d   1      -7.290  92.496 115.234  0.00  0.00     0.028 C 
ATOM     12  C   LIG d   1      -7.025  91.729 113.928  0.00  0.00     0.006 C 
ENDBRANCH   8  11
ENDBRANCH   7   8
ENDBRANCH   1   7
BRANCH   6  13
ATOM     13  N   LIG d   1      -6.546  94.533 118.102  0.00  0.00    -0.311 N 
ATOM     14  C   LIG d   1      -7.250  95.372 118.860  0.00  0.00     0.210 C 
ATOM     15  C   LIG d   1      -7.862  96.561 118.112  0.00  0.00     0.109 C 
ATOM     16  O   LIG d   1      -7.398  95.262 120.086  0.00  0.00    -0.276 OA
ATOM     17  H   LIG d   1      -6.451  94.716 117.122  0.00  0.00     0.149 HD
ENDBRANCH   6  13
BRANCH   5  18
ATOM     18  N   LIG d   1      -4.237  94.518 120.102  0.00  0.00     0.381 N 
ATOM     19  H   LIG d   1      -5.133  94.789 120.456  0.00  0.00    -0.090 HD
ATOM     20  H   LIG d   1      -3.778  95.338 119.746  0.00  0.00    -0.090 HD
ATOM     21  H   LIG d   1      -3.692  94.113 120.830  0.00  0.00    -0.090 HD
ENDBRANCH   5  18
BRANCH   3  22
ATOM     22  C   LIG d   1      -3.035  90.183 118.458  0.00  0.00     0.382 C 
ATOM     23  O   LIG d   1      -3.288  89.121 117.839  0.00  0.00    -0.241 OA
ATOM     24  O   LIG d   1      -1.939  90.311 119.035  0.00  0.00    -0.241 OA
ENDBRANCH   3  22
TORSDOF 7
ENDMDL
MODEL 9
REMARK VINA RESULT:      -4.9      2.921      6.170
REMARK  7 active torsions:
REMARK  status: ('A' for Active; 'I' for Inactive)
REMARK    1  A    between atoms: C_2  and  C_3 
REMARK    2  A    between atoms: C_3  and  O_6 
REMARK    3  A    between atoms: C_3  and  C_4 
REMARK    4  A    between atoms: C_7  and  O_6 
REMARK    5  A    between atoms: C_9  and  C_10 
REMARK    6  A    between atoms: N_15  and  C_14 
REMARK    7  A    between atoms: N_20  and  C_19 
REMARK       I    between atoms: C_22  and  N_20 
ROOT
ATOM      1  C   LIG d   1      -5.119  77.017 117.461  0.00  0.00     0.161 C 
ATOM      2  C   LIG d   1      -5.993  78.095 117.678  0.00  0.00     0.016 C 
ATOM      3  C   LIG d   1      -5.679  79.432 117.339  0.00  0.00     0.038 C 
ATOM      4  C   LIG d   1      -4.522  79.761 116.617  0.00  0.00     0.028 C 
ATOM      5  C   LIG d   1      -3.377  78.775 116.824  0.00  0.00    -0.047 C 
ATOM      6  C   LIG d   1      -3.898  77.342 116.574  0.00  0.00     0.091 C 
ENDROOT
BRANCH   1   7
ATOM      7  O   LIG d   1      -5.848  75.898 116.920  0.00  0.00    -0.368 OA
BRANCH   7   8
ATOM      8  C   LIG d   1      -7.219  76.159 116.530  0.00  0.00     0.119 C 
BRANCH   8   9
ATOM      9  C   LIG d   1      -8.084  75.011 117.084  0.00  0.00     0.028 C 
ATOM     10  C   LIG d   1      -9.584  75.227 116.821  0.00  0.00     0.006 C 
ENDBRANCH   8   9
BRANCH   8  11
ATOM     11  C   LIG d   1      -7.387  76.096 115.009  0.00  0.00     0.028 C 
ATOM     12  C   LIG d   1      -6.073  75.781 114.277  0.00  0.00     0.006 C 
ENDBRANCH   8  11
ENDBRANCH   7   8
ENDBRANCH   1   7
BRANCH   6  13
ATOM     13  N   LIG d   1      -2.863  76.308 116.837  0.00  0.00    -0.311 N 
ATOM     14  C   LIG d   1      -2.131  75.743 115.879  0.00  0.00     0.210 C 
ATOM     15  C   LIG d   1      -1.135  74.686 116.365  0.00  0.00     0.109 C 
ATOM     16  O   LIG d   1      -2.190  76.040 114.676  0.00  0.00    -0.276 OA
ATOM     17  H   LIG d   1      -2.728  76.030 117.790  0.00  0.00     0.149 HD
ENDBRANCH   6  13
BRANCH   5  18
ATOM     18  N   LIG d   1      -2.285  79.161 115.911  0.00  0.00     0.381 N 
ATOM     19  H   LIG d   1      -1.554  79.608 116.426  0.00  0.00    -0.090 HD
ATOM     20  H   LIG d   1      -2.642  79.815 115.236  0.00  0.00    -0.090 HD
ATOM     21  H   LIG d   1      -1.929  78.355 115.446  0.00  0.00    -0.090 HD
ENDBRANCH   5  18
BRANCH   3  22
ATOM     22  C   LIG d   1      -6.509  80.460 117.758  0.00  0.00     0.382 C 
ATOM     23  O   LIG d   1      -6.158  81.200 118.709  0.00  0.00    -0.241 OA
ATOM     24  O   LIG d   1      -7.623  80.629 117.228  0.00  0.00    -0.241 OA
ENDBRANCH   3  22
TORSDOF 7
ENDMDL
