MODEL 1
REMARK VINA RESULT:      -5.5      0.000      0.000
REMARK  7 active torsions:
REMARK  status: ('A' for Active; 'I' for Inactive)
REMARK    1  A    between atoms: C_2  and  C_3 
REMARK    2  A    between atoms: C_3  and  O_6 
REMARK    3  A    between atoms: C_3  and  C_4 
REMARK    4  A    between atoms: C_7  and  O_6 
REMARK    5  A    between atoms: C_9  and  C_10 
REMARK    6  A    between atoms: N_15  and  C_14 
REMARK    7  A    between atoms: N_20  and  C_19 
REMARK       I    between atoms: C_22  and  N_20 
ROOT
ATOM      1  C   LIG d   1      -5.399  92.564 117.869  0.00  0.00     0.161 C 
ATOM      2  C   LIG d   1      -6.375  91.732 117.295  0.00  0.00     0.016 C 
ATOM      3  C   LIG d   1      -6.068  90.651 116.437  0.00  0.00     0.038 C 
ATOM      4  C   LIG d   1      -4.747  90.233 116.214  0.00  0.00     0.028 C 
ATOM      5  C   LIG d   1      -3.723  91.352 116.369  0.00  0.00    -0.047 C 
ATOM      6  C   LIG d   1      -3.950  92.055 117.727  0.00  0.00     0.091 C 
ENDROOT
BRANCH   1   7
ATOM      7  O   LIG d   1      -5.714  92.800 119.256  0.00  0.00    -0.368 OA
BRANCH   7   8
ATOM      8  C   LIG d   1      -6.170  94.134 119.588  0.00  0.00     0.119 C 
BRANCH   8   9
ATOM      9  C   LIG d   1      -5.108  94.772 120.505  0.00  0.00     0.028 C 
ATOM     10  C   LIG d   1      -4.433  95.994 119.859  0.00  0.00     0.006 C 
ENDBRANCH   8   9
BRANCH   8  11
ATOM     11  C   LIG d   1      -7.453  94.093 120.423  0.00  0.00     0.028 C 
ATOM     12  C   LIG d   1      -8.725  94.088 119.561  0.00  0.00     0.006 C 
ENDBRANCH   8  11
ENDBRANCH   7   8
ENDBRANCH   1   7
BRANCH   6  13
ATOM     13  N   LIG d   1      -3.044  93.217 117.922  0.00  0.00    -0.311 N 
ATOM     14  C   LIG d   1      -1.883  93.140 118.571  0.00  0.00     0.210 C 
ATOM     15  C   LIG d   1      -1.113  94.461 118.675  0.00  0.00     0.109 C 
ATOM     16  O   LIG d   1      -1.402  92.098 119.041  0.00  0.00    -0.276 OA
ATOM     17  H   LIG d   1      -3.341  94.095 117.545  0.00  0.00     0.149 HD
ENDBRANCH   6  13
BRANCH   5  18
ATOM     18  N   LIG d   1      -2.382  90.749 116.247  0.00  0.00     0.381 N 
ATOM     19  H   LIG d   1      -2.457  89.836 115.845  0.00  0.00    -0.090 HD
ATOM     20  H   LIG d   1      -1.982  90.659 117.164  0.00  0.00    -0.090 HD
ATOM     21  H   LIG d   1      -1.801  91.324 115.678  0.00  0.00    -0.090 HD
ENDBRANCH   5  18
BRANCH   3  22
ATOM     22  C   LIG d   1      -7.088  90.001 115.759  0.00  0.00     0.382 C 
ATOM     23  O   LIG d   1      -7.964  89.371 116.399  0.00  0.00    -0.241 OA
ATOM     24  O   LIG d   1      -7.118  89.999 114.513  0.00  0.00    -0.241 OA
ENDBRANCH   3  22
TORSDOF 7
ENDMDL
MODEL 2
REMARK VINA RESULT:      -5.5     16.507     18.558
REMARK  7 active torsions:
REMARK  status: ('A' for Active; 'I' for Inactive)
REMARK    1  A    between atoms: C_2  and  C_3 
REMARK    2  A    between atoms: C_3  and  O_6 
REMARK    3  A    between atoms: C_3  and  C_4 
REMARK    4  A    between atoms: C_7  and  O_6 
REMARK    5  A    between atoms: C_9  and  C_10 
REMARK    6  A    between atoms: N_15  and  C_14 
REMARK    7  A    between atoms: N_20  and  C_19 
REMARK       I    between atoms: C_22  and  N_20 
ROOT
ATOM      1  C   LIG d   1      -4.530  74.727 117.721  0.00  0.00     0.161 C 
ATOM      2  C   LIG d   1      -4.674  75.471 116.538  0.00  0.00     0.016 C 
ATOM      3  C   LIG d   1      -3.606  75.734 115.649  0.00  0.00     0.038 C 
ATOM      4  C   LIG d   1      -2.346  75.140 115.808  0.00  0.00     0.028 C 
ATOM      5  C   LIG d   1      -2.018  74.792 117.256  0.00  0.00    -0.047 C 
ATOM      6  C   LIG d   1      -3.188  73.977 117.854  0.00  0.00     0.091 C 
ENDROOT
BRANCH   1   7
ATOM      7  O   LIG d   1      -5.632  73.809 117.858  0.00  0.00    -0.368 OA
BRANCH   7   8
ATOM      8  C   LIG d   1      -6.613  73.826 116.792  0.00  0.00     0.119 C 
BRANCH   8   9
ATOM      9  C   LIG d   1      -8.005  73.934 117.444  0.00  0.00     0.028 C 
ATOM     10  C   LIG d   1      -8.499  75.387 117.535  0.00  0.00     0.006 C 
ENDBRANCH   8   9
BRANCH   8  11
ATOM     11  C   LIG d   1      -6.626  72.501 116.025  0.00  0.00     0.028 C 
ATOM     12  C   LIG d   1      -7.905  71.684 116.268  0.00  0.00     0.006 C 
ENDBRANCH   8  11
ENDBRANCH   7   8
ENDBRANCH   1   7
BRANCH   6  13
ATOM     13  N   LIG d   1      -2.986  73.668 119.294  0.00  0.00    -0.311 N 
ATOM     14  C   LIG d   1      -2.453  72.528 119.731  0.00  0.00     0.210 C 
ATOM     15  C   LIG d   1      -2.354  72.404 121.254  0.00  0.00     0.109 C 
ATOM     16  O   LIG d   1      -2.025  71.622 119.001  0.00  0.00    -0.276 OA
ATOM     17  H   LIG d   1      -3.277  74.361 119.954  0.00  0.00     0.149 HD
ENDBRANCH   6  13
BRANCH   5  18
ATOM     18  N   LIG d   1      -0.739  74.056 117.260  0.00  0.00     0.381 N 
ATOM     19  H   LIG d   1      -0.880  73.131 116.906  0.00  0.00    -0.090 HD
ATOM     20  H   LIG d   1      -0.408  73.985 118.206  0.00  0.00    -0.090 HD
ATOM     21  H   LIG d   1      -0.069  74.535 116.700  0.00  0.00    -0.090 HD
ENDBRANCH   5  18
BRANCH   3  22
ATOM     22  C   LIG d   1      -3.784  76.633 114.609  0.00  0.00     0.382 C 
ATOM     23  O   LIG d   1      -3.534  77.851 114.783  0.00  0.00    -0.241 OA
ATOM     24  O   LIG d   1      -4.233  76.250 113.512  0.00  0.00    -0.241 OA
ENDBRANCH   3  22
TORSDOF 7
ENDMDL
MODEL 3
REMARK VINA RESULT:      -5.2     16.451     18.744
REMARK  7 active torsions:
REMARK  status: ('A' for Active; 'I' for Inactive)
REMARK    1  A    between atoms: C_2  and  C_3 
REMARK    2  A    between atoms: C_3  and  O_6 
REMARK    3  A    between atoms: C_3  and  C_4 
REMARK    4  A    between atoms: C_7  and  O_6 
REMARK    5  A    between atoms: C_9  and  C_10 
REMARK    6  A    between atoms: N_15  and  C_14 
REMARK    7  A    between atoms: N_20  and  C_19 
REMARK       I    between atoms: C_22  and  N_20 
ROOT
ATOM      1  C   LIG d   1      -4.551  73.909 117.614  0.00  0.00     0.161 C 
ATOM      2  C   LIG d   1      -5.667  73.057 117.583  0.00  0.00     0.016 C 
ATOM      3  C   LIG d   1      -6.636  73.081 116.554  0.00  0.00     0.038 C 
ATOM      4  C   LIG d   1      -6.473  73.861 115.400  0.00  0.00     0.028 C 
ATOM      5  C   LIG d   1      -5.620  75.105 115.626  0.00  0.00    -0.047 C 
ATOM      6  C   LIG d   1      -4.297  74.690 116.308  0.00  0.00     0.091 C 
ENDROOT
BRANCH   1   7
ATOM      7  O   LIG d   1      -3.376  73.162 117.988  0.00  0.00    -0.368 OA
BRANCH   7   8
ATOM      8  C   LIG d   1      -3.036  73.172 119.396  0.00  0.00     0.119 C 
BRANCH   8   9
ATOM      9  C   LIG d   1      -2.020  74.309 119.619  0.00  0.00     0.028 C 
ATOM     10  C   LIG d   1      -0.850  74.255 118.622  0.00  0.00     0.006 C 
ENDBRANCH   8   9
BRANCH   8  11
ATOM     11  C   LIG d   1      -2.304  71.889 119.802  0.00  0.00     0.028 C 
ATOM     12  C   LIG d   1      -1.987  71.833 121.305  0.00  0.00     0.006 C 
ENDBRANCH   8  11
ENDBRANCH   7   8
ENDBRANCH   1   7
BRANCH   6  13
ATOM     13  N   LIG d   1      -3.440  75.857 116.641  0.00  0.00    -0.311 N 
ATOM     14  C   LIG d   1      -2.458  76.294 115.854  0.00  0.00     0.210 C 
ATOM     15  C   LIG d   1      -1.684  77.501 116.395  0.00  0.00     0.109 C 
ATOM     16  O   LIG d   1      -2.176  75.818 114.744  0.00  0.00    -0.276 OA
ATOM     17  H   LIG d   1      -3.620  76.323 117.509  0.00  0.00     0.149 HD
ENDBRANCH   6  13
BRANCH   5  18
ATOM     18  N   LIG d   1      -5.417  75.751 114.315  0.00  0.00     0.381 N 
ATOM     19  H   LIG d   1      -4.443  75.761 114.089  0.00  0.00    -0.090 HD
ATOM     20  H   LIG d   1      -5.739  76.701 114.367  0.00  0.00    -0.090 HD
ATOM     21  H   LIG d   1      -5.924  75.259 113.611  0.00  0.00    -0.090 HD
ENDBRANCH   5  18
BRANCH   3  22
ATOM     22  C   LIG d   1      -7.804  72.347 116.694  0.00  0.00     0.382 C 
ATOM     23  O   LIG d   1      -8.635  72.654 117.583  0.00  0.00    -0.241 OA
ATOM     24  O   LIG d   1      -8.018  71.356 115.970  0.00  0.00    -0.241 OA
ENDBRANCH   3  22
TORSDOF 7
ENDMDL
MODEL 4
REMARK VINA RESULT:      -5.1      2.412      6.108
REMARK  7 active torsions:
REMARK  status: ('A' for Active; 'I' for Inactive)
REMARK    1  A    between atoms: C_2  and  C_3 
REMARK    2  A    between atoms: C_3  and  O_6 
REMARK    3  A    between atoms: C_3  and  C_4 
REMARK    4  A    between atoms: C_7  and  O_6 
REMARK    5  A    between atoms: C_9  and  C_10 
REMARK    6  A    between atoms: N_15  and  C_14 
REMARK    7  A    between atoms: N_20  and  C_19 
REMARK       I    between atoms: C_22  and  N_20 
ROOT
ATOM      1  C   LIG d   1      -4.796  91.803 117.968  0.00  0.00     0.161 C 
ATOM      2  C   LIG d   1      -4.374  92.509 119.106  0.00  0.00     0.016 C 
ATOM      3  C   LIG d   1      -5.135  93.535 119.712  0.00  0.00     0.038 C 
ATOM      4  C   LIG d   1      -6.447  93.823 119.307  0.00  0.00     0.028 C 
ATOM      5  C   LIG d   1      -6.718  93.483 117.845  0.00  0.00    -0.047 C 
ATOM      6  C   LIG d   1      -6.272  92.027 117.578  0.00  0.00     0.091 C 
ENDROOT
BRANCH   1   7
ATOM      7  O   LIG d   1      -4.531  90.396 118.139  0.00  0.00    -0.368 OA
BRANCH   7   8
ATOM      8  C   LIG d   1      -3.619  89.799 117.185  0.00  0.00     0.119 C 
BRANCH   8   9
ATOM      9  C   LIG d   1      -2.524  89.068 117.987  0.00  0.00     0.028 C 
ATOM     10  C   LIG d   1      -2.959  88.763 119.430  0.00  0.00     0.006 C 
ENDBRANCH   8   9
BRANCH   8  11
ATOM     11  C   LIG d   1      -2.881  90.869 116.375  0.00  0.00     0.028 C 
ATOM     12  C   LIG d   1      -1.447  91.110 116.872  0.00  0.00     0.006 C 
ENDBRANCH   8  11
ENDBRANCH   7   8
ENDBRANCH   1   7
BRANCH   6  13
ATOM     13  N   LIG d   1      -6.425  91.640 116.151  0.00  0.00    -0.311 N 
ATOM     14  C   LIG d   1      -6.993  90.502 115.757  0.00  0.00     0.210 C 
ATOM     15  C   LIG d   1      -7.031  90.289 114.240  0.00  0.00     0.109 C 
ATOM     16  O   LIG d   1      -7.499  89.663 116.518  0.00  0.00    -0.276 OA
ATOM     17  H   LIG d   1      -6.070  92.277 115.465  0.00  0.00     0.149 HD
ENDBRANCH   6  13
BRANCH   5  18
ATOM     18  N   LIG d   1      -8.155  93.703 117.595  0.00  0.00     0.381 N 
ATOM     19  H   LIG d   1      -8.697  93.114 118.194  0.00  0.00    -0.090 HD
ATOM     20  H   LIG d   1      -8.360  93.458 116.642  0.00  0.00    -0.090 HD
ATOM     21  H   LIG d   1      -8.387  94.658 117.757  0.00  0.00    -0.090 HD
ENDBRANCH   5  18
BRANCH   3  22
ATOM     22  C   LIG d   1      -4.569  94.313 120.710  0.00  0.00     0.382 C 
ATOM     23  O   LIG d   1      -3.376  94.124 121.052  0.00  0.00    -0.241 OA
ATOM     24  O   LIG d   1      -5.248  95.171 121.304  0.00  0.00    -0.241 OA
ENDBRANCH   3  22
TORSDOF 7
ENDMDL
MODEL 5
REMARK VINA RESULT:      -5.1      2.177      4.436
REMARK  7 active torsions:
REMARK  status: ('A' for Active; 'I' for Inactive)
REMARK    1  A    between atoms: C_2  and  C_3 
REMARK    2  A    between atoms: C_3  and  O_6 
REMARK    3  A    between atoms: C_3  and  C_4 
REMARK    4  A    between atoms: C_7  and  O_6 
REMARK    5  A    between atoms: C_9  and  C_10 
REMARK    6  A    between atoms: N_15  and  C_14 
REMARK    7  A    between atoms: N_20  and  C_19 
REMARK       I    between atoms: C_22  and  N_20 
ROOT
ATOM      1  C   LIG d   1      -4.019  90.886 117.608  0.00  0.00     0.161 C 
ATOM      2  C   LIG d   1      -4.957  90.251 116.777  0.00  0.00     0.016 C 
ATOM      3  C   LIG d   1      -6.201  90.826 116.426  0.00  0.00     0.038 C 
ATOM      4  C   LIG d   1      -6.528  92.148 116.762  0.00  0.00     0.028 C 
ATOM      5  C   LIG d   1      -5.828  92.643 118.023  0.00  0.00    -0.047 C 
ATOM      6  C   LIG d   1      -4.311  92.374 117.894  0.00  0.00     0.091 C 
ENDROOT
BRANCH   1   7
ATOM      7  O   LIG d   1      -2.696  90.731 117.058  0.00  0.00    -0.368 OA
BRANCH   7   8
ATOM      8  C   LIG d   1      -1.897  89.658 117.614  0.00  0.00     0.119 C 
BRANCH   8   9
ATOM      9  C   LIG d   1      -2.258  89.537 119.107  0.00  0.00     0.028 C 
ATOM     10  C   LIG d   1      -2.640  88.101 119.504  0.00  0.00     0.006 C 
ENDBRANCH   8   9
BRANCH   8  11
ATOM     11  C   LIG d   1      -0.404  90.002 117.585  0.00  0.00     0.028 C 
ATOM     12  C   LIG d   1       0.095  90.600 118.910  0.00  0.00     0.006 C 
ENDBRANCH   8  11
ENDBRANCH   7   8
ENDBRANCH   1   7
BRANCH   6  13
ATOM     13  N   LIG d   1      -3.561  92.752 119.120  0.00  0.00    -0.311 N 
ATOM     14  C   LIG d   1      -2.388  93.381 119.097  0.00  0.00     0.210 C 
ATOM     15  C   LIG d   1      -1.776  93.659 120.474  0.00  0.00     0.109 C 
ATOM     16  O   LIG d   1      -1.811  93.764 118.069  0.00  0.00    -0.276 OA
ATOM     17  H   LIG d   1      -3.972  92.506 120.000  0.00  0.00     0.149 HD
ENDBRANCH   6  13
BRANCH   5  18
ATOM     18  N   LIG d   1      -6.150  94.074 118.179  0.00  0.00     0.381 N 
ATOM     19  H   LIG d   1      -7.138  94.209 118.098  0.00  0.00    -0.090 HD
ATOM     20  H   LIG d   1      -5.699  94.590 117.444  0.00  0.00    -0.090 HD
ATOM     21  H   LIG d   1      -5.834  94.400 119.066  0.00  0.00    -0.090 HD
ENDBRANCH   5  18
BRANCH   3  22
ATOM     22  C   LIG d   1      -7.149  90.061 115.764  0.00  0.00     0.382 C 
ATOM     23  O   LIG d   1      -7.969  89.374 116.419  0.00  0.00    -0.241 OA
ATOM     24  O   LIG d   1      -7.166  90.014 114.519  0.00  0.00    -0.241 OA
ENDBRANCH   3  22
TORSDOF 7
ENDMDL
MODEL 6
REMARK VINA RESULT:      -5.1     14.930     17.736
REMARK  7 active torsions:
REMARK  status: ('A' for Active; 'I' for Inactive)
REMARK    1  A    between atoms: C_2  and  C_3 
REMARK    2  A    between atoms: C_3  and  O_6 
REMARK    3  A    between atoms: C_3  and  C_4 
REMARK    4  A    between atoms: C_7  and  O_6 
REMARK    5  A    between atoms: C_9  and  C_10 
REMARK    6  A    between atoms: N_15  and  C_14 
REMARK    7  A    between atoms: N_20  and  C_19 
REMARK       I    between atoms: C_22  and  N_20 
ROOT
ATOM      1  C   LIG d   1      -7.833  75.272 117.752  0.00  0.00     0.161 C 
ATOM      2  C   LIG d   1      -9.057  75.747 118.251  0.00  0.00     0.016 C 
ATOM      3  C   LIG d   1      -9.348  77.121 118.418  0.00  0.00     0.038 C 
ATOM      4  C   LIG d   1      -8.486  78.124 117.951  0.00  0.00     0.028 C 
ATOM      5  C   LIG d   1      -7.025  77.691 117.901  0.00  0.00    -0.047 C 
ATOM      6  C   LIG d   1      -6.923  76.354 117.133  0.00  0.00     0.091 C 
ENDROOT
BRANCH   1   7
ATOM      7  O   LIG d   1      -8.071  74.214 116.802  0.00  0.00    -0.368 OA
BRANCH   7   8
ATOM      8  C   LIG d   1      -8.236  72.886 117.355  0.00  0.00     0.119 C 
BRANCH   8   9
ATOM      9  C   LIG d   1      -7.183  71.975 116.695  0.00  0.00     0.028 C 
ATOM     10  C   LIG d   1      -6.509  72.640 115.483  0.00  0.00     0.006 C 
ENDBRANCH   8   9
BRANCH   8  11
ATOM     11  C   LIG d   1      -9.591  72.285 116.968  0.00  0.00     0.028 C 
ATOM     12  C   LIG d   1      -9.779  70.853 117.491  0.00  0.00     0.006 C 
ENDBRANCH   8  11
ENDBRANCH   7   8
ENDBRANCH   1   7
BRANCH   6  13
ATOM     13  N   LIG d   1      -5.537  75.817 117.111  0.00  0.00    -0.311 N 
ATOM     14  C   LIG d   1      -4.681  76.039 116.115  0.00  0.00     0.210 C 
ATOM     15  C   LIG d   1      -3.310  75.377 116.281  0.00  0.00     0.109 C 
ATOM     16  O   LIG d   1      -4.916  76.748 115.125  0.00  0.00    -0.276 OA
ATOM     17  H   LIG d   1      -5.252  75.257 117.890  0.00  0.00     0.149 HD
ENDBRANCH   6  13
BRANCH   5  18
ATOM     18  N   LIG d   1      -6.259  78.782 117.268  0.00  0.00     0.381 N 
ATOM     19  H   LIG d   1      -5.666  79.217 117.946  0.00  0.00    -0.090 HD
ATOM     20  H   LIG d   1      -6.902  79.472 116.921  0.00  0.00    -0.090 HD
ATOM     21  H   LIG d   1      -5.710  78.422 116.519  0.00  0.00    -0.090 HD
ENDBRANCH   5  18
BRANCH   3  22
ATOM     22  C   LIG d   1     -10.497  77.502 119.095  0.00  0.00     0.382 C 
ATOM     23  O   LIG d   1     -10.788  78.718 119.201  0.00  0.00    -0.241 OA
ATOM     24  O   LIG d   1     -11.223  76.648 119.638  0.00  0.00    -0.241 OA
ENDBRANCH   3  22
TORSDOF 7
ENDMDL
MODEL 7
REMARK VINA RESULT:      -5.0      2.369      4.155
REMARK  7 active torsions:
REMARK  status: ('A' for Active; 'I' for Inactive)
REMARK    1  A    between atoms: C_2  and  C_3 
REMARK    2  A    between atoms: C_3  and  O_6 
REMARK    3  A    between atoms: C_3  and  C_4 
REMARK    4  A    between atoms: C_7  and  O_6 
REMARK    5  A    between atoms: C_9  and  C_10 
REMARK    6  A    between atoms: N_15  and  C_14 
REMARK    7  A    between atoms: N_20  and  C_19 
REMARK       I    between atoms: C_22  and  N_20 
ROOT
ATOM      1  C   LIG d   1      -5.398  91.504 118.988  0.00  0.00     0.161 C 
ATOM      2  C   LIG d   1      -4.523  90.685 118.255  0.00  0.00     0.016 C 
ATOM      3  C   LIG d   1      -4.644  90.466 116.863  0.00  0.00     0.038 C 
ATOM      4  C   LIG d   1      -5.564  91.177 116.078  0.00  0.00     0.028 C 
ATOM      5  C   LIG d   1      -6.796  91.632 116.853  0.00  0.00    -0.047 C 
ATOM      6  C   LIG d   1      -6.340  92.374 118.130  0.00  0.00     0.091 C 
ENDROOT
BRANCH   1   7
ATOM      7  O   LIG d   1      -4.646  92.328 119.900  0.00  0.00    -0.368 OA
BRANCH   7   8
ATOM      8  C   LIG d   1      -4.031  93.510 119.332  0.00  0.00     0.119 C 
BRANCH   8   9
ATOM      9  C   LIG d   1      -2.504  93.312 119.391  0.00  0.00     0.028 C 
ATOM     10  C   LIG d   1      -1.868  93.231 117.993  0.00  0.00     0.006 C 
ENDBRANCH   8   9
BRANCH   8  11
ATOM     11  C   LIG d   1      -4.312  94.750 120.186  0.00  0.00     0.028 C 
ATOM     12  C   LIG d   1      -5.332  94.484 121.305  0.00  0.00     0.006 C 
ENDBRANCH   8  11
ENDBRANCH   7   8
ENDBRANCH   1   7
BRANCH   6  13
ATOM     13  N   LIG d   1      -7.483  92.781 118.989  0.00  0.00    -0.311 N 
ATOM     14  C   LIG d   1      -8.086  93.965 118.895  0.00  0.00     0.210 C 
ATOM     15  C   LIG d   1      -9.230  94.188 119.889  0.00  0.00     0.109 C 
ATOM     16  O   LIG d   1      -7.802  94.838 118.062  0.00  0.00    -0.276 OA
ATOM     17  H   LIG d   1      -7.798  92.119 119.671  0.00  0.00     0.149 HD
ENDBRANCH   6  13
BRANCH   5  18
ATOM     18  N   LIG d   1      -7.603  92.476 115.951  0.00  0.00     0.381 N 
ATOM     19  H   LIG d   1      -8.570  92.409 116.199  0.00  0.00    -0.090 HD
ATOM     20  H   LIG d   1      -7.495  92.142 115.010  0.00  0.00    -0.090 HD
ATOM     21  H   LIG d   1      -7.302  93.424 116.011  0.00  0.00    -0.090 HD
ENDBRANCH   5  18
BRANCH   3  22
ATOM     22  C   LIG d   1      -3.864  89.498 116.249  0.00  0.00     0.382 C 
ATOM     23  O   LIG d   1      -4.272  88.933 115.205  0.00  0.00    -0.241 OA
ATOM     24  O   LIG d   1      -2.778  89.150 116.750  0.00  0.00    -0.241 OA
ENDBRANCH   3  22
TORSDOF 7
ENDMDL
MODEL 8
REMARK VINA RESULT:      -5.0     15.850     18.534
REMARK  7 active torsions:
REMARK  status: ('A' for Active; 'I' for Inactive)
REMARK    1  A    between atoms: C_2  and  C_3 
REMARK    2  A    between atoms: C_3  and  O_6 
REMARK    3  A    between atoms: C_3  and  C_4 
REMARK    4  A    between atoms: C_7  and  O_6 
REMARK    5  A    between atoms: C_9  and  C_10 
REMARK    6  A    between atoms: N_15  and  C_14 
REMARK    7  A    between atoms: N_20  and  C_19 
REMARK       I    between atoms: C_22  and  N_20 
ROOT
ATOM      1  C   LIG d   1      -6.695  73.894 118.551  0.00  0.00     0.161 C 
ATOM      2  C   LIG d   1      -7.830  74.673 118.273  0.00  0.00     0.016 C 
ATOM      3  C   LIG d   1      -7.784  76.073 118.075  0.00  0.00     0.038 C 
ATOM      4  C   LIG d   1      -6.570  76.770 117.992  0.00  0.00     0.028 C 
ATOM      5  C   LIG d   1      -5.437  76.108 118.768  0.00  0.00    -0.047 C 
ATOM      6  C   LIG d   1      -5.348  74.621 118.355  0.00  0.00     0.091 C 
ENDROOT
BRANCH   1   7
ATOM      7  O   LIG d   1      -6.730  72.683 117.771  0.00  0.00    -0.368 OA
BRANCH   7   8
ATOM      8  C   LIG d   1      -7.408  72.768 116.493  0.00  0.00     0.119 C 
BRANCH   8   9
ATOM      9  C   LIG d   1      -8.189  71.455 116.295  0.00  0.00     0.028 C 
ATOM     10  C   LIG d   1      -9.644  71.557 116.784  0.00  0.00     0.006 C 
ENDBRANCH   8   9
BRANCH   8  11
ATOM     11  C   LIG d   1      -6.409  72.824 115.334  0.00  0.00     0.028 C 
ATOM     12  C   LIG d   1      -6.120  74.259 114.865  0.00  0.00     0.006 C 
ENDBRANCH   8  11
ENDBRANCH   7   8
ENDBRANCH   1   7
BRANCH   6  13
ATOM     13  N   LIG d   1      -4.319  73.878 119.128  0.00  0.00    -0.311 N 
ATOM     14  C   LIG d   1      -3.105  73.602 118.657  0.00  0.00     0.210 C 
ATOM     15  C   LIG d   1      -2.205  72.809 119.610  0.00  0.00     0.109 C 
ATOM     16  O   LIG d   1      -2.675  73.967 117.552  0.00  0.00    -0.276 OA
ATOM     17  H   LIG d   1      -4.573  73.571 120.047  0.00  0.00     0.149 HD
ENDBRANCH   6  13
BRANCH   5  18
ATOM     18  N   LIG d   1      -4.201  76.861 118.482  0.00  0.00     0.381 N 
ATOM     19  H   LIG d   1      -3.435  76.227 118.372  0.00  0.00    -0.090 HD
ATOM     20  H   LIG d   1      -4.002  77.465 119.261  0.00  0.00    -0.090 HD
ATOM     21  H   LIG d   1      -4.316  77.403 117.654  0.00  0.00    -0.090 HD
ENDBRANCH   5  18
BRANCH   3  22
ATOM     22  C   LIG d   1      -8.965  76.795 117.997  0.00  0.00     0.382 C 
ATOM     23  O   LIG d   1      -8.931  78.046 117.917  0.00  0.00    -0.241 OA
ATOM     24  O   LIG d   1     -10.066  76.214 118.051  0.00  0.00    -0.241 OA
ENDBRANCH   3  22
TORSDOF 7
ENDMDL
MODEL 9
REMARK VINA RESULT:      -4.9      2.643      6.231
REMARK  7 active torsions:
REMARK  status: ('A' for Active; 'I' for Inactive)
REMARK    1  A    between atoms: C_2  and  C_3 
REMARK    2  A    between atoms: C_3  and  O_6 
REMARK    3  A    between atoms: C_3  and  C_4 
REMARK    4  A    between atoms: C_7  and  O_6 
REMARK    5  A    between atoms: C_9  and  C_10 
REMARK    6  A    between atoms: N_15  and  C_14 
REMARK    7  A    between atoms: N_20  and  C_19 
REMARK       I    between atoms: C_22  and  N_20 
ROOT
ATOM      1  C   LIG d   1      -3.568  91.924 117.169  0.00  0.00     0.161 C 
ATOM      2  C   LIG d   1      -2.976  92.536 118.287  0.00  0.00     0.016 C 
ATOM      3  C   LIG d   1      -3.701  92.925 119.436  0.00  0.00     0.038 C 
ATOM      4  C   LIG d   1      -5.053  92.590 119.609  0.00  0.00     0.028 C 
ATOM      5  C   LIG d   1      -5.808  92.421 118.295  0.00  0.00    -0.047 C 
ATOM      6  C   LIG d   1      -5.021  91.450 117.385  0.00  0.00     0.091 C 
ENDROOT
BRANCH   1   7
ATOM      7  O   LIG d   1      -2.746  90.830 116.718  0.00  0.00    -0.368 OA
BRANCH   7   8
ATOM      8  C   LIG d   1      -1.904  90.209 117.722  0.00  0.00     0.119 C 
BRANCH   8   9
ATOM      9  C   LIG d   1      -0.515  89.993 117.091  0.00  0.00     0.028 C 
ATOM     10  C   LIG d   1      -0.143  88.504 116.988  0.00  0.00     0.006 C 
ENDBRANCH   8   9
BRANCH   8  11
ATOM     11  C   LIG d   1      -2.409  88.809 118.083  0.00  0.00     0.028 C 
ATOM     12  C   LIG d   1      -2.997  88.735 119.501  0.00  0.00     0.006 C 
ENDBRANCH   8  11
ENDBRANCH   7   8
ENDBRANCH   1   7
BRANCH   6  13
ATOM     13  N   LIG d   1      -5.647  91.294 116.047  0.00  0.00    -0.311 N 
ATOM     14  C   LIG d   1      -6.638  90.441 115.796  0.00  0.00     0.210 C 
ATOM     15  C   LIG d   1      -7.125  90.424 114.344  0.00  0.00     0.109 C 
ATOM     16  O   LIG d   1      -7.183  89.720 116.646  0.00  0.00    -0.276 OA
ATOM     17  H   LIG d   1      -5.287  91.863 115.306  0.00  0.00     0.149 HD
ENDBRANCH   6  13
BRANCH   5  18
ATOM     18  N   LIG d   1      -7.164  91.939 118.619  0.00  0.00     0.381 N 
ATOM     19  H   LIG d   1      -7.805  92.707 118.621  0.00  0.00    -0.090 HD
ATOM     20  H   LIG d   1      -7.153  91.534 119.539  0.00  0.00    -0.090 HD
ATOM     21  H   LIG d   1      -7.452  91.258 117.951  0.00  0.00    -0.090 HD
ENDBRANCH   5  18
BRANCH   3  22
ATOM     22  C   LIG d   1      -3.084  93.694 120.411  0.00  0.00     0.382 C 
ATOM     23  O   LIG d   1      -1.855  93.561 120.629  0.00  0.00    -0.241 OA
ATOM     24  O   LIG d   1      -3.748  94.487 121.105  0.00  0.00    -0.241 OA
ENDBRANCH   3  22
TORSDOF 7
ENDMDL
