MODEL 1
REMARK VINA RESULT:      -6.0      0.000      0.000
REMARK  7 active torsions:
REMARK  status: ('A' for Active; 'I' for Inactive)
REMARK    1  A    between atoms: C_2  and  C_3 
REMARK    2  A    between atoms: C_3  and  O_6 
REMARK    3  A    between atoms: C_3  and  C_4 
REMARK    4  A    between atoms: C_7  and  O_6 
REMARK    5  A    between atoms: C_9  and  C_10 
REMARK    6  A    between atoms: N_15  and  C_14 
REMARK    7  A    between atoms: N_20  and  C_19 
REMARK       I    between atoms: C_22  and  N_20 
ROOT
ATOM      1  C   LIG d   1      -7.636  76.013 117.685  0.00  0.00     0.161 C 
ATOM      2  C   LIG d   1      -8.946  76.322 118.088  0.00  0.00     0.016 C 
ATOM      3  C   LIG d   1      -9.397  77.641 118.323  0.00  0.00     0.038 C 
ATOM      4  C   LIG d   1      -8.606  78.760 118.022  0.00  0.00     0.028 C 
ATOM      5  C   LIG d   1      -7.108  78.479 118.093  0.00  0.00    -0.047 C 
ATOM      6  C   LIG d   1      -6.791  77.227 117.245  0.00  0.00     0.091 C 
ENDROOT
BRANCH   1   7
ATOM      7  O   LIG d   1      -7.667  75.020 116.641  0.00  0.00    -0.368 OA
BRANCH   7   8
ATOM      8  C   LIG d   1      -6.963  73.784 116.915  0.00  0.00     0.119 C 
BRANCH   8   9
ATOM      9  C   LIG d   1      -6.455  73.232 115.569  0.00  0.00     0.028 C 
ATOM     10  C   LIG d   1      -5.642  74.270 114.778  0.00  0.00     0.006 C 
ENDBRANCH   8   9
BRANCH   8  11
ATOM     11  C   LIG d   1      -7.910  72.712 117.462  0.00  0.00     0.028 C 
ATOM     12  C   LIG d   1      -8.411  71.749 116.375  0.00  0.00     0.006 C 
ENDBRANCH   8  11
ENDBRANCH   7   8
ENDBRANCH   1   7
BRANCH   6  13
ATOM     13  N   LIG d   1      -5.361  76.833 117.327  0.00  0.00    -0.311 N 
ATOM     14  C   LIG d   1      -4.444  77.209 116.437  0.00  0.00     0.210 C 
ATOM     15  C   LIG d   1      -3.032  76.676 116.698  0.00  0.00     0.109 C 
ATOM     16  O   LIG d   1      -4.660  77.959 115.473  0.00  0.00    -0.276 OA
ATOM     17  H   LIG d   1      -5.092  76.250 118.096  0.00  0.00     0.149 HD
ENDBRANCH   6  13
BRANCH   5  18
ATOM     18  N   LIG d   1      -6.406  79.689 117.624  0.00  0.00     0.381 N 
ATOM     19  H   LIG d   1      -5.420  79.520 117.599  0.00  0.00    -0.090 HD
ATOM     20  H   LIG d   1      -6.581  80.438 118.270  0.00  0.00    -0.090 HD
ATOM     21  H   LIG d   1      -6.730  79.941 116.716  0.00  0.00    -0.090 HD
ENDBRANCH   5  18
BRANCH   3  22
ATOM     22  C   LIG d   1     -10.639  77.850 118.902  0.00  0.00     0.382 C 
ATOM     23  O   LIG d   1     -11.606  77.110 118.596  0.00  0.00    -0.241 OA
ATOM     24  O   LIG d   1     -10.817  78.795 119.693  0.00  0.00    -0.241 OA
ENDBRANCH   3  22
TORSDOF 7
ENDMDL
MODEL 2
REMARK VINA RESULT:      -6.0      0.853      1.112
REMARK  7 active torsions:
REMARK  status: ('A' for Active; 'I' for Inactive)
REMARK    1  A    between atoms: C_2  and  C_3 
REMARK    2  A    between atoms: C_3  and  O_6 
REMARK    3  A    between atoms: C_3  and  C_4 
REMARK    4  A    between atoms: C_7  and  O_6 
REMARK    5  A    between atoms: C_9  and  C_10 
REMARK    6  A    between atoms: N_15  and  C_14 
REMARK    7  A    between atoms: N_20  and  C_19 
REMARK       I    between atoms: C_22  and  N_20 
ROOT
ATOM      1  C   LIG d   1      -7.282  76.734 117.361  0.00  0.00     0.161 C 
ATOM      2  C   LIG d   1      -8.590  76.998 117.802  0.00  0.00     0.016 C 
ATOM      3  C   LIG d   1      -9.045  78.288 118.160  0.00  0.00     0.038 C 
ATOM      4  C   LIG d   1      -8.263  79.434 117.954  0.00  0.00     0.028 C 
ATOM      5  C   LIG d   1      -6.763  79.157 117.986  0.00  0.00    -0.047 C 
ATOM      6  C   LIG d   1      -6.448  77.988 117.024  0.00  0.00     0.091 C 
ENDROOT
BRANCH   1   7
ATOM      7  O   LIG d   1      -7.319  75.839 116.232  0.00  0.00    -0.368 OA
BRANCH   7   8
ATOM      8  C   LIG d   1      -6.848  74.490 116.472  0.00  0.00     0.119 C 
BRANCH   8   9
ATOM      9  C   LIG d   1      -6.094  74.031 115.209  0.00  0.00     0.028 C 
ATOM     10  C   LIG d   1      -5.577  75.213 114.372  0.00  0.00     0.006 C 
ENDBRANCH   8   9
BRANCH   8  11
ATOM     11  C   LIG d   1      -8.016  73.512 116.625  0.00  0.00     0.028 C 
ATOM     12  C   LIG d   1      -7.724  72.134 116.009  0.00  0.00     0.006 C 
ENDBRANCH   8  11
ENDBRANCH   7   8
ENDBRANCH   1   7
BRANCH   6  13
ATOM     13  N   LIG d   1      -5.015  77.597 117.058  0.00  0.00    -0.311 N 
ATOM     14  C   LIG d   1      -4.100  78.093 116.227  0.00  0.00     0.210 C 
ATOM     15  C   LIG d   1      -2.684  77.540 116.419  0.00  0.00     0.109 C 
ATOM     16  O   LIG d   1      -4.320  78.962 115.369  0.00  0.00    -0.276 OA
ATOM     17  H   LIG d   1      -4.743  76.920 117.744  0.00  0.00     0.149 HD
ENDBRANCH   6  13
BRANCH   5  18
ATOM     18  N   LIG d   1      -6.071  80.408 117.621  0.00  0.00     0.381 N 
ATOM     19  H   LIG d   1      -5.486  80.703 118.377  0.00  0.00    -0.090 HD
ATOM     20  H   LIG d   1      -6.758  81.123 117.456  0.00  0.00    -0.090 HD
ATOM     21  H   LIG d   1      -5.523  80.268 116.802  0.00  0.00    -0.090 HD
ENDBRANCH   5  18
BRANCH   3  22
ATOM     22  C   LIG d   1     -10.283  78.436 118.767  0.00  0.00     0.382 C 
ATOM     23  O   LIG d   1     -10.507  79.429 119.500  0.00  0.00    -0.241 OA
ATOM     24  O   LIG d   1     -11.164  77.566 118.626  0.00  0.00    -0.241 OA
ENDBRANCH   3  22
TORSDOF 7
ENDMDL
MODEL 3
REMARK VINA RESULT:      -5.8     14.131     16.752
REMARK  7 active torsions:
REMARK  status: ('A' for Active; 'I' for Inactive)
REMARK    1  A    between atoms: C_2  and  C_3 
REMARK    2  A    between atoms: C_3  and  O_6 
REMARK    3  A    between atoms: C_3  and  C_4 
REMARK    4  A    between atoms: C_7  and  O_6 
REMARK    5  A    between atoms: C_9  and  C_10 
REMARK    6  A    between atoms: N_15  and  C_14 
REMARK    7  A    between atoms: N_20  and  C_19 
REMARK       I    between atoms: C_22  and  N_20 
ROOT
ATOM      1  C   LIG d   1      -5.828  92.635 117.678  0.00  0.00     0.161 C 
ATOM      2  C   LIG d   1      -6.789  91.744 117.172  0.00  0.00     0.016 C 
ATOM      3  C   LIG d   1      -6.466  90.481 116.625  0.00  0.00     0.038 C 
ATOM      4  C   LIG d   1      -5.166  89.957 116.684  0.00  0.00     0.028 C 
ATOM      5  C   LIG d   1      -4.082  91.029 116.728  0.00  0.00    -0.047 C 
ATOM      6  C   LIG d   1      -4.417  92.035 117.853  0.00  0.00     0.091 C 
ENDROOT
BRANCH   1   7
ATOM      7  O   LIG d   1      -6.291  93.198 118.922  0.00  0.00    -0.368 OA
BRANCH   7   8
ATOM      8  C   LIG d   1      -6.732  94.577 118.872  0.00  0.00     0.119 C 
BRANCH   8   9
ATOM      9  C   LIG d   1      -6.042  95.326 120.029  0.00  0.00     0.028 C 
ATOM     10  C   LIG d   1      -5.187  94.394 120.904  0.00  0.00     0.006 C 
ENDBRANCH   8   9
BRANCH   8  11
ATOM     11  C   LIG d   1      -8.233  94.693 119.153  0.00  0.00     0.028 C 
ATOM     12  C   LIG d   1      -8.806  93.449 119.850  0.00  0.00     0.006 C 
ENDBRANCH   8  11
ENDBRANCH   7   8
ENDBRANCH   1   7
BRANCH   6  13
ATOM     13  N   LIG d   1      -3.453  93.164 117.910  0.00  0.00    -0.311 N 
ATOM     14  C   LIG d   1      -2.396  93.186 118.721  0.00  0.00     0.210 C 
ATOM     15  C   LIG d   1      -1.541  94.454 118.635  0.00  0.00     0.109 C 
ATOM     16  O   LIG d   1      -2.069  92.262 119.480  0.00  0.00    -0.276 OA
ATOM     17  H   LIG d   1      -3.625  93.943 117.304  0.00  0.00     0.149 HD
ENDBRANCH   6  13
BRANCH   5  18
ATOM     18  N   LIG d   1      -2.789  90.349 116.928  0.00  0.00     0.381 N 
ATOM     19  H   LIG d   1      -2.890  89.370 116.747  0.00  0.00    -0.090 HD
ATOM     20  H   LIG d   1      -2.505  90.465 117.885  0.00  0.00    -0.090 HD
ATOM     21  H   LIG d   1      -2.102  90.737 116.320  0.00  0.00    -0.090 HD
ENDBRANCH   5  18
BRANCH   3  22
ATOM     22  C   LIG d   1      -7.443  89.744 115.973  0.00  0.00     0.382 C 
ATOM     23  O   LIG d   1      -7.894  90.138 114.870  0.00  0.00    -0.241 OA
ATOM     24  O   LIG d   1      -7.911  88.714 116.495  0.00  0.00    -0.241 OA
ENDBRANCH   3  22
TORSDOF 7
ENDMDL
MODEL 4
REMARK VINA RESULT:      -5.6      2.318      5.139
REMARK  7 active torsions:
REMARK  status: ('A' for Active; 'I' for Inactive)
REMARK    1  A    between atoms: C_2  and  C_3 
REMARK    2  A    between atoms: C_3  and  O_6 
REMARK    3  A    between atoms: C_3  and  C_4 
REMARK    4  A    between atoms: C_7  and  O_6 
REMARK    5  A    between atoms: C_9  and  C_10 
REMARK    6  A    between atoms: N_15  and  C_14 
REMARK    7  A    between atoms: N_20  and  C_19 
REMARK       I    between atoms: C_22  and  N_20 
ROOT
ATOM      1  C   LIG d   1      -5.477  75.905 116.030  0.00  0.00     0.161 C 
ATOM      2  C   LIG d   1      -5.915  74.624 115.655  0.00  0.00     0.016 C 
ATOM      3  C   LIG d   1      -7.115  74.042 116.125  0.00  0.00     0.038 C 
ATOM      4  C   LIG d   1      -8.040  74.768 116.889  0.00  0.00     0.028 C 
ATOM      5  C   LIG d   1      -7.406  75.888 117.707  0.00  0.00    -0.047 C 
ATOM      6  C   LIG d   1      -6.528  76.755 116.775  0.00  0.00     0.091 C 
ENDROOT
BRANCH   1   7
ATOM      7  O   LIG d   1      -4.989  76.613 114.873  0.00  0.00    -0.368 OA
BRANCH   7   8
ATOM      8  C   LIG d   1      -3.556  76.820 114.811  0.00  0.00     0.119 C 
BRANCH   8   9
ATOM      9  C   LIG d   1      -3.318  78.267 114.339  0.00  0.00     0.028 C 
ATOM     10  C   LIG d   1      -3.103  79.239 115.512  0.00  0.00     0.006 C 
ENDBRANCH   8   9
BRANCH   8  11
ATOM     11  C   LIG d   1      -2.912  75.933 113.741  0.00  0.00     0.028 C 
ATOM     12  C   LIG d   1      -1.378  75.907 113.834  0.00  0.00     0.006 C 
ENDBRANCH   8  11
ENDBRANCH   7   8
ENDBRANCH   1   7
BRANCH   6  13
ATOM     13  N   LIG d   1      -5.804  77.824 117.510  0.00  0.00    -0.311 N 
ATOM     14  C   LIG d   1      -6.276  79.060 117.661  0.00  0.00     0.210 C 
ATOM     15  C   LIG d   1      -5.361  80.012 118.437  0.00  0.00     0.109 C 
ATOM     16  O   LIG d   1      -7.381  79.449 117.254  0.00  0.00    -0.276 OA
ATOM     17  H   LIG d   1      -4.913  77.585 117.900  0.00  0.00     0.149 HD
ENDBRANCH   6  13
BRANCH   5  18
ATOM     18  N   LIG d   1      -8.497  76.648 118.345  0.00  0.00     0.381 N 
ATOM     19  H   LIG d   1      -9.381  76.293 118.039  0.00  0.00    -0.090 HD
ATOM     20  H   LIG d   1      -8.430  77.611 118.065  0.00  0.00    -0.090 HD
ATOM     21  H   LIG d   1      -8.428  76.577 119.336  0.00  0.00    -0.090 HD
ENDBRANCH   5  18
BRANCH   3  22
ATOM     22  C   LIG d   1      -7.379  72.707 115.864  0.00  0.00     0.382 C 
ATOM     23  O   LIG d   1      -8.452  72.191 116.261  0.00  0.00    -0.241 OA
ATOM     24  O   LIG d   1      -6.540  71.999 115.275  0.00  0.00    -0.241 OA
ENDBRANCH   3  22
TORSDOF 7
ENDMDL
MODEL 5
REMARK VINA RESULT:      -5.5      1.283      2.102
REMARK  7 active torsions:
REMARK  status: ('A' for Active; 'I' for Inactive)
REMARK    1  A    between atoms: C_2  and  C_3 
REMARK    2  A    between atoms: C_3  and  O_6 
REMARK    3  A    between atoms: C_3  and  C_4 
REMARK    4  A    between atoms: C_7  and  O_6 
REMARK    5  A    between atoms: C_9  and  C_10 
REMARK    6  A    between atoms: N_15  and  C_14 
REMARK    7  A    between atoms: N_20  and  C_19 
REMARK       I    between atoms: C_22  and  N_20 
ROOT
ATOM      1  C   LIG d   1      -7.505  76.594 118.607  0.00  0.00     0.161 C 
ATOM      2  C   LIG d   1      -8.879  76.479 118.875  0.00  0.00     0.016 C 
ATOM      3  C   LIG d   1      -9.784  77.562 118.780  0.00  0.00     0.038 C 
ATOM      4  C   LIG d   1      -9.398  78.807 118.262  0.00  0.00     0.028 C 
ATOM      5  C   LIG d   1      -7.916  79.112 118.457  0.00  0.00    -0.047 C 
ATOM      6  C   LIG d   1      -7.086  77.917 117.934  0.00  0.00     0.091 C 
ENDROOT
BRANCH   1   7
ATOM      7  O   LIG d   1      -7.065  75.470 117.820  0.00  0.00    -0.368 OA
BRANCH   7   8
ATOM      8  C   LIG d   1      -7.819  75.204 116.612  0.00  0.00     0.119 C 
BRANCH   8   9
ATOM      9  C   LIG d   1      -7.986  73.676 116.498  0.00  0.00     0.028 C 
ATOM     10  C   LIG d   1      -7.719  72.955 117.830  0.00  0.00     0.006 C 
ENDBRANCH   8   9
BRANCH   8  11
ATOM     11  C   LIG d   1      -7.035  75.620 115.364  0.00  0.00     0.028 C 
ATOM     12  C   LIG d   1      -5.533  75.313 115.473  0.00  0.00     0.006 C 
ENDBRANCH   8  11
ENDBRANCH   7   8
ENDBRANCH   1   7
BRANCH   6  13
ATOM     13  N   LIG d   1      -5.628  78.097 118.163  0.00  0.00    -0.311 N 
ATOM     14  C   LIG d   1      -4.796  78.586 117.245  0.00  0.00     0.210 C 
ATOM     15  C   LIG d   1      -3.330  78.669 117.680  0.00  0.00     0.109 C 
ATOM     16  O   LIG d   1      -5.139  78.988 116.123  0.00  0.00    -0.276 OA
ATOM     17  H   LIG d   1      -5.270  77.824 119.058  0.00  0.00     0.149 HD
ENDBRANCH   6  13
BRANCH   5  18
ATOM     18  N   LIG d   1      -7.623  80.373 117.750  0.00  0.00     0.381 N 
ATOM     19  H   LIG d   1      -8.235  80.471 116.965  0.00  0.00    -0.090 HD
ATOM     20  H   LIG d   1      -6.678  80.344 117.412  0.00  0.00    -0.090 HD
ATOM     21  H   LIG d   1      -7.739  81.145 118.369  0.00  0.00    -0.090 HD
ENDBRANCH   5  18
BRANCH   3  22
ATOM     22  C   LIG d   1     -11.082  77.416 119.245  0.00  0.00     0.382 C 
ATOM     23  O   LIG d   1     -11.368  77.749 120.420  0.00  0.00    -0.241 OA
ATOM     24  O   LIG d   1     -11.960  76.914 118.518  0.00  0.00    -0.241 OA
ENDBRANCH   3  22
TORSDOF 7
ENDMDL
MODEL 6
REMARK VINA RESULT:      -5.4     14.340     15.955
REMARK  7 active torsions:
REMARK  status: ('A' for Active; 'I' for Inactive)
REMARK    1  A    between atoms: C_2  and  C_3 
REMARK    2  A    between atoms: C_3  and  O_6 
REMARK    3  A    between atoms: C_3  and  C_4 
REMARK    4  A    between atoms: C_7  and  O_6 
REMARK    5  A    between atoms: C_9  and  C_10 
REMARK    6  A    between atoms: N_15  and  C_14 
REMARK    7  A    between atoms: N_20  and  C_19 
REMARK       I    between atoms: C_22  and  N_20 
ROOT
ATOM      1  C   LIG d   1      -4.107  90.932 117.615  0.00  0.00     0.161 C 
ATOM      2  C   LIG d   1      -4.828  90.292 116.593  0.00  0.00     0.016 C 
ATOM      3  C   LIG d   1      -6.028  90.805 116.049  0.00  0.00     0.038 C 
ATOM      4  C   LIG d   1      -6.511  92.078 116.387  0.00  0.00     0.028 C 
ATOM      5  C   LIG d   1      -6.091  92.535 117.779  0.00  0.00    -0.047 C 
ATOM      6  C   LIG d   1      -4.559  92.376 117.919  0.00  0.00     0.091 C 
ENDROOT
BRANCH   1   7
ATOM      7  O   LIG d   1      -2.698  90.902 117.312  0.00  0.00    -0.368 OA
BRANCH   7   8
ATOM      8  C   LIG d   1      -1.924  89.880 117.986  0.00  0.00     0.119 C 
BRANCH   8   9
ATOM      9  C   LIG d   1      -2.532  89.688 119.389  0.00  0.00     0.028 C 
ATOM     10  C   LIG d   1      -1.563  90.101 120.510  0.00  0.00     0.006 C 
ENDBRANCH   8   9
BRANCH   8  11
ATOM     11  C   LIG d   1      -0.484  90.341 118.228  0.00  0.00     0.028 C 
ATOM     12  C   LIG d   1      -0.072  91.511 117.321  0.00  0.00     0.006 C 
ENDBRANCH   8  11
ENDBRANCH   7   8
ENDBRANCH   1   7
BRANCH   6  13
ATOM     13  N   LIG d   1      -4.075  92.722 119.281  0.00  0.00    -0.311 N 
ATOM     14  C   LIG d   1      -2.983  93.449 119.507  0.00  0.00     0.210 C 
ATOM     15  C   LIG d   1      -2.650  93.673 120.986  0.00  0.00     0.109 C 
ATOM     16  O   LIG d   1      -2.275  93.957 118.624  0.00  0.00    -0.276 OA
ATOM     17  H   LIG d   1      -4.607  92.377 120.055  0.00  0.00     0.149 HD
ENDBRANCH   6  13
BRANCH   5  18
ATOM     18  N   LIG d   1      -6.545  93.928 117.947  0.00  0.00     0.381 N 
ATOM     19  H   LIG d   1      -5.854  94.556 117.586  0.00  0.00    -0.090 HD
ATOM     20  H   LIG d   1      -6.661  94.117 118.927  0.00  0.00    -0.090 HD
ATOM     21  H   LIG d   1      -7.409  94.065 117.471  0.00  0.00    -0.090 HD
ENDBRANCH   5  18
BRANCH   3  22
ATOM     22  C   LIG d   1      -6.779  90.024 115.184  0.00  0.00     0.382 C 
ATOM     23  O   LIG d   1      -6.208  89.216 114.412  0.00  0.00    -0.241 OA
ATOM     24  O   LIG d   1      -8.017  90.148 115.135  0.00  0.00    -0.241 OA
ENDBRANCH   3  22
TORSDOF 7
ENDMDL
MODEL 7
REMARK VINA RESULT:      -5.4      2.302      5.546
REMARK  7 active torsions:
REMARK  status: ('A' for Active; 'I' for Inactive)
REMARK    1  A    between atoms: C_2  and  C_3 
REMARK    2  A    between atoms: C_3  and  O_6 
REMARK    3  A    between atoms: C_3  and  C_4 
REMARK    4  A    between atoms: C_7  and  O_6 
REMARK    5  A    between atoms: C_9  and  C_10 
REMARK    6  A    between atoms: N_15  and  C_14 
REMARK    7  A    between atoms: N_20  and  C_19 
REMARK       I    between atoms: C_22  and  N_20 
ROOT
ATOM      1  C   LIG d   1      -5.322  76.346 115.772  0.00  0.00     0.161 C 
ATOM      2  C   LIG d   1      -4.160  75.867 115.144  0.00  0.00     0.016 C 
ATOM      3  C   LIG d   1      -2.947  76.590 115.098  0.00  0.00     0.038 C 
ATOM      4  C   LIG d   1      -2.768  77.784 115.813  0.00  0.00     0.028 C 
ATOM      5  C   LIG d   1      -4.064  78.553 116.042  0.00  0.00    -0.047 C 
ATOM      6  C   LIG d   1      -5.114  77.596 116.652  0.00  0.00     0.091 C 
ENDROOT
BRANCH   1   7
ATOM      7  O   LIG d   1      -5.934  75.289 116.539  0.00  0.00    -0.368 OA
BRANCH   7   8
ATOM      8  C   LIG d   1      -7.009  74.569 115.888  0.00  0.00     0.119 C 
BRANCH   8   9
ATOM      9  C   LIG d   1      -8.225  74.598 116.833  0.00  0.00     0.028 C 
ATOM     10  C   LIG d   1      -7.906  75.269 118.180  0.00  0.00     0.006 C 
ENDBRANCH   8   9
BRANCH   8  11
ATOM     11  C   LIG d   1      -6.663  73.086 115.718  0.00  0.00     0.028 C 
ATOM     12  C   LIG d   1      -7.836  72.157 116.070  0.00  0.00     0.006 C 
ENDBRANCH   8  11
ENDBRANCH   7   8
ENDBRANCH   1   7
BRANCH   6  13
ATOM     13  N   LIG d   1      -6.438  78.246 116.830  0.00  0.00    -0.311 N 
ATOM     14  C   LIG d   1      -6.830  78.812 117.971  0.00  0.00     0.210 C 
ATOM     15  C   LIG d   1      -8.241  79.408 117.946  0.00  0.00     0.109 C 
ATOM     16  O   LIG d   1      -6.130  78.906 118.990  0.00  0.00    -0.276 OA
ATOM     17  H   LIG d   1      -7.058  78.243 116.043  0.00  0.00     0.149 HD
ENDBRANCH   6  13
BRANCH   5  18
ATOM     18  N   LIG d   1      -3.753  79.701 116.915  0.00  0.00     0.381 N 
ATOM     19  H   LIG d   1      -4.166  79.564 117.816  0.00  0.00    -0.090 HD
ATOM     20  H   LIG d   1      -4.147  80.533 116.511  0.00  0.00    -0.090 HD
ATOM     21  H   LIG d   1      -2.767  79.803 117.006  0.00  0.00    -0.090 HD
ENDBRANCH   5  18
BRANCH   3  22
ATOM     22  C   LIG d   1      -1.908  76.140 114.298  0.00  0.00     0.382 C 
ATOM     23  O   LIG d   1      -1.958  76.301 113.055  0.00  0.00    -0.241 OA
ATOM     24  O   LIG d   1      -0.941  75.534 114.799  0.00  0.00    -0.241 OA
ENDBRANCH   3  22
TORSDOF 7
ENDMDL
MODEL 8
REMARK VINA RESULT:      -5.2      2.164      3.159
REMARK  7 active torsions:
REMARK  status: ('A' for Active; 'I' for Inactive)
REMARK    1  A    between atoms: C_2  and  C_3 
REMARK    2  A    between atoms: C_3  and  O_6 
REMARK    3  A    between atoms: C_3  and  C_4 
REMARK    4  A    between atoms: C_7  and  O_6 
REMARK    5  A    between atoms: C_9  and  C_10 
REMARK    6  A    between atoms: N_15  and  C_14 
REMARK    7  A    between atoms: N_20  and  C_19 
REMARK       I    between atoms: C_22  and  N_20 
ROOT
ATOM      1  C   LIG d   1      -6.322  78.190 117.310  0.00  0.00     0.161 C 
ATOM      2  C   LIG d   1      -7.606  77.713 117.620  0.00  0.00     0.016 C 
ATOM      3  C   LIG d   1      -8.644  78.535 118.117  0.00  0.00     0.038 C 
ATOM      4  C   LIG d   1      -8.511  79.929 118.195  0.00  0.00     0.028 C 
ATOM      5  C   LIG d   1      -7.069  80.392 118.370  0.00  0.00    -0.047 C 
ATOM      6  C   LIG d   1      -6.193  79.728 117.284  0.00  0.00     0.091 C 
ENDROOT
BRANCH   1   7
ATOM      7  O   LIG d   1      -5.881  77.629 116.058  0.00  0.00    -0.368 OA
BRANCH   7   8
ATOM      8  C   LIG d   1      -5.430  76.253 116.100  0.00  0.00     0.119 C 
BRANCH   8   9
ATOM      9  C   LIG d   1      -3.918  76.252 115.805  0.00  0.00     0.028 C 
ATOM     10  C   LIG d   1      -3.076  76.576 117.051  0.00  0.00     0.006 C 
ENDBRANCH   8   9
BRANCH   8  11
ATOM     11  C   LIG d   1      -6.063  75.424 114.979  0.00  0.00     0.028 C 
ATOM     12  C   LIG d   1      -5.094  75.157 113.816  0.00  0.00     0.006 C 
ENDBRANCH   8  11
ENDBRANCH   7   8
ENDBRANCH   1   7
BRANCH   6  13
ATOM     13  N   LIG d   1      -4.753  80.061 117.435  0.00  0.00    -0.311 N 
ATOM     14  C   LIG d   1      -4.168  81.084 116.813  0.00  0.00     0.210 C 
ATOM     15  C   LIG d   1      -2.669  81.238 117.092  0.00  0.00     0.109 C 
ATOM     16  O   LIG d   1      -4.754  81.897 116.083  0.00  0.00    -0.276 OA
ATOM     17  H   LIG d   1      -4.208  79.471 118.033  0.00  0.00     0.149 HD
ENDBRANCH   6  13
BRANCH   5  18
ATOM     18  N   LIG d   1      -7.062  81.866 118.298  0.00  0.00     0.381 N 
ATOM     19  H   LIG d   1      -6.568  82.162 117.480  0.00  0.00    -0.090 HD
ATOM     20  H   LIG d   1      -6.583  82.228 119.104  0.00  0.00    -0.090 HD
ATOM     21  H   LIG d   1      -7.996  82.210 118.275  0.00  0.00    -0.090 HD
ENDBRANCH   5  18
BRANCH   3  22
ATOM     22  C   LIG d   1      -9.816  77.958 118.580  0.00  0.00     0.382 C 
ATOM     23  O   LIG d   1     -10.882  78.620 118.582  0.00  0.00    -0.241 OA
ATOM     24  O   LIG d   1      -9.813  76.799 119.036  0.00  0.00    -0.241 OA
ENDBRANCH   3  22
TORSDOF 7
ENDMDL
MODEL 9
REMARK VINA RESULT:      -5.2      2.374      4.417
REMARK  7 active torsions:
REMARK  status: ('A' for Active; 'I' for Inactive)
REMARK    1  A    between atoms: C_2  and  C_3 
REMARK    2  A    between atoms: C_3  and  O_6 
REMARK    3  A    between atoms: C_3  and  C_4 
REMARK    4  A    between atoms: C_7  and  O_6 
REMARK    5  A    between atoms: C_9  and  C_10 
REMARK    6  A    between atoms: N_15  and  C_14 
REMARK    7  A    between atoms: N_20  and  C_19 
REMARK       I    between atoms: C_22  and  N_20 
ROOT
ATOM      1  C   LIG d   1      -5.811  76.987 116.616  0.00  0.00     0.161 C 
ATOM      2  C   LIG d   1      -5.685  78.362 116.870  0.00  0.00     0.016 C 
ATOM      3  C   LIG d   1      -6.680  79.128 117.520  0.00  0.00     0.038 C 
ATOM      4  C   LIG d   1      -7.812  78.535 118.099  0.00  0.00     0.028 C 
ATOM      5  C   LIG d   1      -8.223  77.230 117.426  0.00  0.00    -0.047 C 
ATOM      6  C   LIG d   1      -6.990  76.301 117.339  0.00  0.00     0.091 C 
ENDROOT
BRANCH   1   7
ATOM      7  O   LIG d   1      -4.574  76.316 116.929  0.00  0.00    -0.368 OA
BRANCH   7   8
ATOM      8  C   LIG d   1      -3.815  75.820 115.799  0.00  0.00     0.119 C 
BRANCH   8   9
ATOM      9  C   LIG d   1      -2.507  76.632 115.727  0.00  0.00     0.028 C 
ATOM     10  C   LIG d   1      -2.174  77.082 114.294  0.00  0.00     0.006 C 
ENDBRANCH   8   9
BRANCH   8  11
ATOM     11  C   LIG d   1      -4.538  76.097 114.477  0.00  0.00     0.028 C 
ATOM     12  C   LIG d   1      -5.053  74.817 113.800  0.00  0.00     0.006 C 
ENDBRANCH   8  11
ENDBRANCH   7   8
ENDBRANCH   1   7
BRANCH   6  13
ATOM     13  N   LIG d   1      -7.284  75.035 116.618  0.00  0.00    -0.311 N 
ATOM     14  C   LIG d   1      -7.659  73.913 117.230  0.00  0.00     0.210 C 
ATOM     15  C   LIG d   1      -7.893  72.717 116.302  0.00  0.00     0.109 C 
ATOM     16  O   LIG d   1      -7.851  73.804 118.451  0.00  0.00    -0.276 OA
ATOM     17  H   LIG d   1      -7.184  75.043 115.622  0.00  0.00     0.149 HD
ENDBRANCH   6  13
BRANCH   5  18
ATOM     18  N   LIG d   1      -9.328  76.651 118.213  0.00  0.00     0.381 N 
ATOM     19  H   LIG d   1      -9.919  76.106 117.618  0.00  0.00    -0.090 HD
ATOM     20  H   LIG d   1      -9.875  77.398 118.603  0.00  0.00    -0.090 HD
ATOM     21  H   LIG d   1      -8.963  76.081 118.944  0.00  0.00    -0.090 HD
ENDBRANCH   5  18
BRANCH   3  22
ATOM     22  C   LIG d   1      -6.567  80.510 117.561  0.00  0.00     0.382 C 
ATOM     23  O   LIG d   1      -7.298  81.221 116.830  0.00  0.00    -0.241 OA
ATOM     24  O   LIG d   1      -5.712  81.052 118.286  0.00  0.00    -0.241 OA
ENDBRANCH   3  22
TORSDOF 7
ENDMDL
