MODEL 1
REMARK VINA RESULT:      -4.9      0.000      0.000
REMARK  7 active torsions:
REMARK  status: ('A' for Active; 'I' for Inactive)
REMARK    1  A    between atoms: C_2  and  C_3 
REMARK    2  A    between atoms: C_3  and  O_6 
REMARK    3  A    between atoms: C_3  and  C_4 
REMARK    4  A    between atoms: C_7  and  O_6 
REMARK    5  A    between atoms: C_9  and  C_10 
REMARK    6  A    between atoms: N_15  and  C_14 
REMARK    7  A    between atoms: N_20  and  C_19 
REMARK       I    between atoms: C_22  and  N_20 
ROOT
ATOM      1  C   LIG d   1      -4.485  74.653 117.894  0.00  0.00     0.161 C 
ATOM      2  C   LIG d   1      -4.948  73.331 117.791  0.00  0.00     0.016 C 
ATOM      3  C   LIG d   1      -5.897  72.912 116.829  0.00  0.00     0.038 C 
ATOM      4  C   LIG d   1      -6.335  73.761 115.802  0.00  0.00     0.028 C 
ATOM      5  C   LIG d   1      -6.278  75.239 116.172  0.00  0.00    -0.047 C 
ATOM      6  C   LIG d   1      -4.868  75.567 116.712  0.00  0.00     0.091 C 
ENDROOT
BRANCH   1   7
ATOM      7  O   LIG d   1      -3.056  74.656 118.088  0.00  0.00    -0.368 OA
BRANCH   7   8
ATOM      8  C   LIG d   1      -2.335  73.533 117.524  0.00  0.00     0.119 C 
BRANCH   8   9
ATOM      9  C   LIG d   1      -1.249  73.124 118.539  0.00  0.00     0.028 C 
ATOM     10  C   LIG d   1      -1.236  74.030 119.782  0.00  0.00     0.006 C 
ENDBRANCH   8   9
BRANCH   8  11
ATOM     11  C   LIG d   1      -1.574  73.938 116.258  0.00  0.00     0.028 C 
ATOM     12  C   LIG d   1      -1.163  75.418 116.258  0.00  0.00     0.006 C 
ENDBRANCH   8  11
ENDBRANCH   7   8
ENDBRANCH   1   7
BRANCH   6  13
ATOM     13  N   LIG d   1      -4.752  76.975 117.176  0.00  0.00    -0.311 N 
ATOM     14  C   LIG d   1      -4.372  77.978 116.386  0.00  0.00     0.210 C 
ATOM     15  C   LIG d   1      -4.299  79.347 117.070  0.00  0.00     0.109 C 
ATOM     16  O   LIG d   1      -4.119  77.869 115.177  0.00  0.00    -0.276 OA
ATOM     17  H   LIG d   1      -4.968  77.158 118.136  0.00  0.00     0.149 HD
ENDBRANCH   6  13
BRANCH   5  18
ATOM     18  N   LIG d   1      -6.631  76.014 114.967  0.00  0.00     0.381 N 
ATOM     19  H   LIG d   1      -7.298  76.721 115.202  0.00  0.00    -0.090 HD
ATOM     20  H   LIG d   1      -7.049  75.396 114.294  0.00  0.00    -0.090 HD
ATOM     21  H   LIG d   1      -5.814  76.433 114.580  0.00  0.00    -0.090 HD
ENDBRANCH   5  18
BRANCH   3  22
ATOM     22  C   LIG d   1      -6.446  71.642 116.914  0.00  0.00     0.382 C 
ATOM     23  O   LIG d   1      -6.607  71.102 118.035  0.00  0.00    -0.241 OA
ATOM     24  O   LIG d   1      -6.743  71.012 115.882  0.00  0.00    -0.241 OA
ENDBRANCH   3  22
TORSDOF 7
ENDMDL
MODEL 2
REMARK VINA RESULT:      -4.9      2.541      6.080
REMARK  7 active torsions:
REMARK  status: ('A' for Active; 'I' for Inactive)
REMARK    1  A    between atoms: C_2  and  C_3 
REMARK    2  A    between atoms: C_3  and  O_6 
REMARK    3  A    between atoms: C_3  and  C_4 
REMARK    4  A    between atoms: C_7  and  O_6 
REMARK    5  A    between atoms: C_9  and  C_10 
REMARK    6  A    between atoms: N_15  and  C_14 
REMARK    7  A    between atoms: N_20  and  C_19 
REMARK       I    between atoms: C_22  and  N_20 
ROOT
ATOM      1  C   LIG d   1      -3.613  76.535 116.889  0.00  0.00     0.161 C 
ATOM      2  C   LIG d   1      -3.846  77.626 116.036  0.00  0.00     0.016 C 
ATOM      3  C   LIG d   1      -2.934  78.044 115.039  0.00  0.00     0.038 C 
ATOM      4  C   LIG d   1      -1.788  77.299 114.725  0.00  0.00     0.028 C 
ATOM      5  C   LIG d   1      -1.259  76.477 115.896  0.00  0.00    -0.047 C 
ATOM      6  C   LIG d   1      -2.419  75.643 116.487  0.00  0.00     0.091 C 
ENDROOT
BRANCH   1   7
ATOM      7  O   LIG d   1      -4.812  75.743 117.007  0.00  0.00    -0.368 OA
BRANCH   7   8
ATOM      8  C   LIG d   1      -5.162  74.940 115.853  0.00  0.00     0.119 C 
BRANCH   8   9
ATOM      9  C   LIG d   1      -6.407  75.577 115.207  0.00  0.00     0.028 C 
ATOM     10  C   LIG d   1      -7.626  75.565 116.145  0.00  0.00     0.006 C 
ENDBRANCH   8   9
BRANCH   8  11
ATOM     11  C   LIG d   1      -5.595  73.530 116.266  0.00  0.00     0.028 C 
ATOM     12  C   LIG d   1      -5.221  73.193 117.718  0.00  0.00     0.006 C 
ENDBRANCH   8  11
ENDBRANCH   7   8
ENDBRANCH   1   7
BRANCH   6  13
ATOM     13  N   LIG d   1      -2.008  74.873 117.690  0.00  0.00    -0.311 N 
ATOM     14  C   LIG d   1      -1.435  73.672 117.631  0.00  0.00     0.210 C 
ATOM     15  C   LIG d   1      -1.109  73.044 118.989  0.00  0.00     0.109 C 
ATOM     16  O   LIG d   1      -1.138  73.081 116.582  0.00  0.00    -0.276 OA
ATOM     17  H   LIG d   1      -2.184  75.292 118.582  0.00  0.00     0.149 HD
ENDBRANCH   6  13
BRANCH   5  18
ATOM     18  N   LIG d   1      -0.149  75.647 115.392  0.00  0.00     0.381 N 
ATOM     19  H   LIG d   1       0.020  74.889 116.022  0.00  0.00    -0.090 HD
ATOM     20  H   LIG d   1       0.682  76.210 115.346  0.00  0.00    -0.090 HD
ATOM     21  H   LIG d   1      -0.370  75.293 114.487  0.00  0.00    -0.090 HD
ENDBRANCH   5  18
BRANCH   3  22
ATOM     22  C   LIG d   1      -3.146  79.240 114.372  0.00  0.00     0.382 C 
ATOM     23  O   LIG d   1      -3.005  79.297 113.126  0.00  0.00    -0.241 OA
ATOM     24  O   LIG d   1      -3.433  80.274 115.004  0.00  0.00    -0.241 OA
ENDBRANCH   3  22
TORSDOF 7
ENDMDL
MODEL 3
REMARK VINA RESULT:      -4.9      4.456      6.617
REMARK  7 active torsions:
REMARK  status: ('A' for Active; 'I' for Inactive)
REMARK    1  A    between atoms: C_2  and  C_3 
REMARK    2  A    between atoms: C_3  and  O_6 
REMARK    3  A    between atoms: C_3  and  C_4 
REMARK    4  A    between atoms: C_7  and  O_6 
REMARK    5  A    between atoms: C_9  and  C_10 
REMARK    6  A    between atoms: N_15  and  C_14 
REMARK    7  A    between atoms: N_20  and  C_19 
REMARK       I    between atoms: C_22  and  N_20 
ROOT
ATOM      1  C   LIG d   1      -6.669  79.343 117.941  0.00  0.00     0.161 C 
ATOM      2  C   LIG d   1      -7.965  78.903 118.257  0.00  0.00     0.016 C 
ATOM      3  C   LIG d   1      -8.994  79.765 118.699  0.00  0.00     0.038 C 
ATOM      4  C   LIG d   1      -8.839  81.160 118.711  0.00  0.00     0.028 C 
ATOM      5  C   LIG d   1      -7.391  81.606 118.883  0.00  0.00    -0.047 C 
ATOM      6  C   LIG d   1      -6.513  80.875 117.841  0.00  0.00     0.091 C 
ENDROOT
BRANCH   1   7
ATOM      7  O   LIG d   1      -6.222  78.714 116.723  0.00  0.00    -0.368 OA
BRANCH   7   8
ATOM      8  C   LIG d   1      -5.975  77.289 116.796  0.00  0.00     0.119 C 
BRANCH   8   9
ATOM      9  C   LIG d   1      -4.490  77.058 116.458  0.00  0.00     0.028 C 
ATOM     10  C   LIG d   1      -4.300  76.286 115.142  0.00  0.00     0.006 C 
ENDBRANCH   8   9
BRANCH   8  11
ATOM     11  C   LIG d   1      -6.758  76.532 115.719  0.00  0.00     0.028 C 
ATOM     12  C   LIG d   1      -7.937  75.729 116.292  0.00  0.00     0.006 C 
ENDBRANCH   8  11
ENDBRANCH   7   8
ENDBRANCH   1   7
BRANCH   6  13
ATOM     13  N   LIG d   1      -5.069  81.192 117.995  0.00  0.00    -0.311 N 
ATOM     14  C   LIG d   1      -4.453  82.154 117.311  0.00  0.00     0.210 C 
ATOM     15  C   LIG d   1      -2.956  82.300 117.606  0.00  0.00     0.109 C 
ATOM     16  O   LIG d   1      -5.009  82.921 116.511  0.00  0.00    -0.276 OA
ATOM     17  H   LIG d   1      -4.548  80.638 118.646  0.00  0.00     0.149 HD
ENDBRANCH   6  13
BRANCH   5  18
ATOM     18  N   LIG d   1      -7.357  83.074 118.740  0.00  0.00     0.381 N 
ATOM     19  H   LIG d   1      -6.666  83.458 119.352  0.00  0.00    -0.090 HD
ATOM     20  H   LIG d   1      -8.253  83.447 119.001  0.00  0.00    -0.090 HD
ATOM     21  H   LIG d   1      -7.150  83.320 117.797  0.00  0.00    -0.090 HD
ENDBRANCH   5  18
BRANCH   3  22
ATOM     22  C   LIG d   1     -10.182  79.231 119.174  0.00  0.00     0.382 C 
ATOM     23  O   LIG d   1     -10.625  78.161 118.691  0.00  0.00    -0.241 OA
ATOM     24  O   LIG d   1     -10.838  79.828 120.048  0.00  0.00    -0.241 OA
ENDBRANCH   3  22
TORSDOF 7
ENDMDL
MODEL 4
REMARK VINA RESULT:      -4.7     16.525     18.206
REMARK  7 active torsions:
REMARK  status: ('A' for Active; 'I' for Inactive)
REMARK    1  A    between atoms: C_2  and  C_3 
REMARK    2  A    between atoms: C_3  and  O_6 
REMARK    3  A    between atoms: C_3  and  C_4 
REMARK    4  A    between atoms: C_7  and  O_6 
REMARK    5  A    between atoms: C_9  and  C_10 
REMARK    6  A    between atoms: N_15  and  C_14 
REMARK    7  A    between atoms: N_20  and  C_19 
REMARK       I    between atoms: C_22  and  N_20 
ROOT
ATOM      1  C   LIG d   1       0.205  57.500 118.341  0.00  0.00     0.161 C 
ATOM      2  C   LIG d   1      -1.157  57.607 118.014  0.00  0.00     0.016 C 
ATOM      3  C   LIG d   1      -1.622  58.046 116.753  0.00  0.00     0.038 C 
ATOM      4  C   LIG d   1      -0.750  58.264 115.676  0.00  0.00     0.028 C 
ATOM      5  C   LIG d   1       0.660  58.654 116.108  0.00  0.00    -0.047 C 
ATOM      6  C   LIG d   1       1.170  57.627 117.144  0.00  0.00     0.091 C 
ENDROOT
BRANCH   1   7
ATOM      7  O   LIG d   1       0.442  56.266 119.047  0.00  0.00    -0.368 OA
BRANCH   7   8
ATOM      8  C   LIG d   1       1.054  56.387 120.355  0.00  0.00     0.119 C 
BRANCH   8   9
ATOM      9  C   LIG d   1       0.308  55.429 121.305  0.00  0.00     0.028 C 
ATOM     10  C   LIG d   1      -1.182  55.294 120.951  0.00  0.00     0.006 C 
ENDBRANCH   8   9
BRANCH   8  11
ATOM     11  C   LIG d   1       0.843  57.785 120.942  0.00  0.00     0.028 C 
ATOM     12  C   LIG d   1       2.164  58.502 121.263  0.00  0.00     0.006 C 
ENDBRANCH   8  11
ENDBRANCH   7   8
ENDBRANCH   1   7
BRANCH   6  13
ATOM     13  N   LIG d   1       2.509  57.981 117.682  0.00  0.00    -0.311 N 
ATOM     14  C   LIG d   1       3.547  57.147 117.672  0.00  0.00     0.210 C 
ATOM     15  C   LIG d   1       4.831  57.705 118.294  0.00  0.00     0.109 C 
ATOM     16  O   LIG d   1       3.536  56.009 117.179  0.00  0.00    -0.276 OA
ATOM     17  H   LIG d   1       2.616  58.897 118.073  0.00  0.00     0.149 HD
ENDBRANCH   6  13
BRANCH   5  18
ATOM     18  N   LIG d   1       1.497  58.715 114.894  0.00  0.00     0.381 N 
ATOM     19  H   LIG d   1       1.082  58.165 114.169  0.00  0.00    -0.090 HD
ATOM     20  H   LIG d   1       2.401  58.331 115.104  0.00  0.00    -0.090 HD
ATOM     21  H   LIG d   1       1.591  59.660 114.592  0.00  0.00    -0.090 HD
ENDBRANCH   5  18
BRANCH   3  22
ATOM     22  C   LIG d   1      -2.971  58.309 116.571  0.00  0.00     0.382 C 
ATOM     23  O   LIG d   1      -3.631  57.648 115.733  0.00  0.00    -0.241 OA
ATOM     24  O   LIG d   1      -3.526  59.228 117.203  0.00  0.00    -0.241 OA
ENDBRANCH   3  22
TORSDOF 7
ENDMDL
MODEL 5
REMARK VINA RESULT:      -4.6      1.945      4.617
REMARK  7 active torsions:
REMARK  status: ('A' for Active; 'I' for Inactive)
REMARK    1  A    between atoms: C_2  and  C_3 
REMARK    2  A    between atoms: C_3  and  O_6 
REMARK    3  A    between atoms: C_3  and  C_4 
REMARK    4  A    between atoms: C_7  and  O_6 
REMARK    5  A    between atoms: C_9  and  C_10 
REMARK    6  A    between atoms: N_15  and  C_14 
REMARK    7  A    between atoms: N_20  and  C_19 
REMARK       I    between atoms: C_22  and  N_20 
ROOT
ATOM      1  C   LIG d   1      -4.734  73.737 116.786  0.00  0.00     0.161 C 
ATOM      2  C   LIG d   1      -4.060  74.681 115.993  0.00  0.00     0.016 C 
ATOM      3  C   LIG d   1      -4.704  75.770 115.363  0.00  0.00     0.038 C 
ATOM      4  C   LIG d   1      -6.051  76.078 115.609  0.00  0.00     0.028 C 
ATOM      5  C   LIG d   1      -6.888  74.865 116.000  0.00  0.00    -0.047 C 
ATOM      6  C   LIG d   1      -6.182  74.120 117.156  0.00  0.00     0.091 C 
ENDROOT
BRANCH   1   7
ATOM      7  O   LIG d   1      -3.968  73.463 117.976  0.00  0.00    -0.368 OA
BRANCH   7   8
ATOM      8  C   LIG d   1      -3.106  74.531 118.439  0.00  0.00     0.119 C 
BRANCH   8   9
ATOM      9  C   LIG d   1      -1.779  73.892 118.891  0.00  0.00     0.028 C 
ATOM     10  C   LIG d   1      -0.911  73.439 117.704  0.00  0.00     0.006 C 
ENDBRANCH   8   9
BRANCH   8  11
ATOM     11  C   LIG d   1      -3.677  75.206 119.689  0.00  0.00     0.028 C 
ATOM     12  C   LIG d   1      -2.846  76.416 120.146  0.00  0.00     0.006 C 
ENDBRANCH   8  11
ENDBRANCH   7   8
ENDBRANCH   1   7
BRANCH   6  13
ATOM     13  N   LIG d   1      -6.892  72.873 117.543  0.00  0.00    -0.311 N 
ATOM     14  C   LIG d   1      -6.930  71.783 116.778  0.00  0.00     0.210 C 
ATOM     15  C   LIG d   1      -7.733  70.614 117.357  0.00  0.00     0.109 C 
ATOM     16  O   LIG d   1      -6.347  71.662 115.690  0.00  0.00    -0.276 OA
ATOM     17  H   LIG d   1      -7.365  72.872 118.425  0.00  0.00     0.149 HD
ENDBRANCH   6  13
BRANCH   5  18
ATOM     18  N   LIG d   1      -8.234  75.349 116.361  0.00  0.00     0.381 N 
ATOM     19  H   LIG d   1      -8.173  75.960 117.151  0.00  0.00    -0.090 HD
ATOM     20  H   LIG d   1      -8.806  74.563 116.613  0.00  0.00    -0.090 HD
ATOM     21  H   LIG d   1      -8.640  75.832 115.590  0.00  0.00    -0.090 HD
ENDBRANCH   5  18
BRANCH   3  22
ATOM     22  C   LIG d   1      -4.010  76.542 114.444  0.00  0.00     0.382 C 
ATOM     23  O   LIG d   1      -4.629  77.136 113.529  0.00  0.00    -0.241 OA
ATOM     24  O   LIG d   1      -2.767  76.617 114.493  0.00  0.00    -0.241 OA
ENDBRANCH   3  22
TORSDOF 7
ENDMDL
MODEL 6
REMARK VINA RESULT:      -4.6      3.642      5.766
REMARK  7 active torsions:
REMARK  status: ('A' for Active; 'I' for Inactive)
REMARK    1  A    between atoms: C_2  and  C_3 
REMARK    2  A    between atoms: C_3  and  O_6 
REMARK    3  A    between atoms: C_3  and  C_4 
REMARK    4  A    between atoms: C_7  and  O_6 
REMARK    5  A    between atoms: C_9  and  C_10 
REMARK    6  A    between atoms: N_15  and  C_14 
REMARK    7  A    between atoms: N_20  and  C_19 
REMARK       I    between atoms: C_22  and  N_20 
ROOT
ATOM      1  C   LIG d   1      -6.791  77.522 117.686  0.00  0.00     0.161 C 
ATOM      2  C   LIG d   1      -8.119  77.782 118.065  0.00  0.00     0.016 C 
ATOM      3  C   LIG d   1      -8.607  79.078 118.349  0.00  0.00     0.038 C 
ATOM      4  C   LIG d   1      -7.834  80.227 118.126  0.00  0.00     0.028 C 
ATOM      5  C   LIG d   1      -6.333  79.977 118.228  0.00  0.00    -0.047 C 
ATOM      6  C   LIG d   1      -5.963  78.774 117.330  0.00  0.00     0.091 C 
ENDROOT
BRANCH   1   7
ATOM      7  O   LIG d   1      -6.770  76.580 116.596  0.00  0.00    -0.368 OA
BRANCH   7   8
ATOM      8  C   LIG d   1      -6.258  75.260 116.903  0.00  0.00     0.119 C 
BRANCH   8   9
ATOM      9  C   LIG d   1      -5.247  74.887 115.802  0.00  0.00     0.028 C 
ATOM     10  C   LIG d   1      -5.341  75.816 114.580  0.00  0.00     0.006 C 
ENDBRANCH   8   9
BRANCH   8  11
ATOM     11  C   LIG d   1      -7.361  74.200 116.816  0.00  0.00     0.028 C 
ATOM     12  C   LIG d   1      -6.822  72.767 116.941  0.00  0.00     0.006 C 
ENDBRANCH   8  11
ENDBRANCH   7   8
ENDBRANCH   1   7
BRANCH   6  13
ATOM     13  N   LIG d   1      -4.526  78.408 117.436  0.00  0.00    -0.311 N 
ATOM     14  C   LIG d   1      -3.654  78.569 116.443  0.00  0.00     0.210 C 
ATOM     15  C   LIG d   1      -2.227  78.109 116.755  0.00  0.00     0.109 C 
ATOM     16  O   LIG d   1      -3.919  79.080 115.344  0.00  0.00    -0.276 OA
ATOM     17  H   LIG d   1      -4.218  78.016 118.304  0.00  0.00     0.149 HD
ENDBRANCH   6  13
BRANCH   5  18
ATOM     18  N   LIG d   1      -5.646  81.222 117.838  0.00  0.00     0.381 N 
ATOM     19  H   LIG d   1      -5.103  81.066 117.012  0.00  0.00    -0.090 HD
ATOM     20  H   LIG d   1      -5.023  81.495 118.578  0.00  0.00    -0.090 HD
ATOM     21  H   LIG d   1      -6.314  81.943 117.673  0.00  0.00    -0.090 HD
ENDBRANCH   5  18
BRANCH   3  22
ATOM     22  C   LIG d   1      -9.870  79.231 118.901  0.00  0.00     0.382 C 
ATOM     23  O   LIG d   1     -10.694  78.286 118.851  0.00  0.00    -0.241 OA
ATOM     24  O   LIG d   1     -10.210  80.316 119.408  0.00  0.00    -0.241 OA
ENDBRANCH   3  22
TORSDOF 7
ENDMDL
MODEL 7
REMARK VINA RESULT:      -4.4     13.680     16.225
REMARK  7 active torsions:
REMARK  status: ('A' for Active; 'I' for Inactive)
REMARK    1  A    between atoms: C_2  and  C_3 
REMARK    2  A    between atoms: C_3  and  O_6 
REMARK    3  A    between atoms: C_3  and  C_4 
REMARK    4  A    between atoms: C_7  and  O_6 
REMARK    5  A    between atoms: C_9  and  C_10 
REMARK    6  A    between atoms: N_15  and  C_14 
REMARK    7  A    between atoms: N_20  and  C_19 
REMARK       I    between atoms: C_22  and  N_20 
ROOT
ATOM      1  C   LIG d   1     -16.371  63.620 116.752  0.00  0.00     0.161 C 
ATOM      2  C   LIG d   1     -16.718  62.280 116.514  0.00  0.00     0.016 C 
ATOM      3  C   LIG d   1     -17.353  61.839 115.330  0.00  0.00     0.038 C 
ATOM      4  C   LIG d   1     -17.550  62.690 114.233  0.00  0.00     0.028 C 
ATOM      5  C   LIG d   1     -17.674  64.160 114.621  0.00  0.00    -0.047 C 
ATOM      6  C   LIG d   1     -16.477  64.544 115.520  0.00  0.00     0.091 C 
ENDROOT
BRANCH   1   7
ATOM      7  O   LIG d   1     -15.047  63.689 117.317  0.00  0.00    -0.368 OA
BRANCH   7   8
ATOM      8  C   LIG d   1     -14.973  63.714 118.764  0.00  0.00     0.119 C 
BRANCH   8   9
ATOM      9  C   LIG d   1     -14.522  65.128 119.180  0.00  0.00     0.028 C 
ATOM     10  C   LIG d   1     -15.674  65.961 119.769  0.00  0.00     0.006 C 
ENDBRANCH   8   9
BRANCH   8  11
ATOM     11  C   LIG d   1     -13.882  62.772 119.282  0.00  0.00     0.028 C 
ATOM     12  C   LIG d   1     -14.347  61.920 120.473  0.00  0.00     0.006 C 
ENDBRANCH   8  11
ENDBRANCH   7   8
ENDBRANCH   1   7
BRANCH   6  13
ATOM     13  N   LIG d   1     -16.565  65.943 116.014  0.00  0.00    -0.311 N 
ATOM     14  C   LIG d   1     -15.517  66.761 116.089  0.00  0.00     0.210 C 
ATOM     15  C   LIG d   1     -15.823  68.155 116.645  0.00  0.00     0.109 C 
ATOM     16  O   LIG d   1     -14.368  66.475 115.718  0.00  0.00    -0.276 OA
ATOM     17  H   LIG d   1     -17.466  66.268 116.307  0.00  0.00     0.149 HD
ENDBRANCH   6  13
BRANCH   5  18
ATOM     18  N   LIG d   1     -17.736  64.946 113.374  0.00  0.00     0.381 N 
ATOM     19  H   LIG d   1     -17.114  64.555 112.696  0.00  0.00    -0.090 HD
ATOM     20  H   LIG d   1     -17.441  65.887 113.568  0.00  0.00    -0.090 HD
ATOM     21  H   LIG d   1     -18.667  64.949 113.019  0.00  0.00    -0.090 HD
ENDBRANCH   5  18
BRANCH   3  22
ATOM     22  C   LIG d   1     -17.836  60.541 115.251  0.00  0.00     0.382 C 
ATOM     23  O   LIG d   1     -18.835  60.202 115.930  0.00  0.00    -0.241 OA
ATOM     24  O   LIG d   1     -17.258  59.694 114.544  0.00  0.00    -0.241 OA
ENDBRANCH   3  22
TORSDOF 7
ENDMDL
MODEL 8
REMARK VINA RESULT:      -4.4     13.849     15.369
REMARK  7 active torsions:
REMARK  status: ('A' for Active; 'I' for Inactive)
REMARK    1  A    between atoms: C_2  and  C_3 
REMARK    2  A    between atoms: C_3  and  O_6 
REMARK    3  A    between atoms: C_3  and  C_4 
REMARK    4  A    between atoms: C_7  and  O_6 
REMARK    5  A    between atoms: C_9  and  C_10 
REMARK    6  A    between atoms: N_15  and  C_14 
REMARK    7  A    between atoms: N_20  and  C_19 
REMARK       I    between atoms: C_22  and  N_20 
ROOT
ATOM      1  C   LIG d   1     -14.872  65.838 117.601  0.00  0.00     0.161 C 
ATOM      2  C   LIG d   1     -14.813  66.415 118.881  0.00  0.00     0.016 C 
ATOM      3  C   LIG d   1     -15.869  67.167 119.445  0.00  0.00     0.038 C 
ATOM      4  C   LIG d   1     -17.122  67.267 118.823  0.00  0.00     0.028 C 
ATOM      5  C   LIG d   1     -17.059  67.126 117.306  0.00  0.00    -0.047 C 
ATOM      6  C   LIG d   1     -16.272  65.843 116.954  0.00  0.00     0.091 C 
ENDROOT
BRANCH   1   7
ATOM      7  O   LIG d   1     -14.344  64.498 117.644  0.00  0.00    -0.368 OA
BRANCH   7   8
ATOM      8  C   LIG d   1     -14.971  63.596 118.590  0.00  0.00     0.119 C 
BRANCH   8   9
ATOM      9  C   LIG d   1     -13.848  62.808 119.292  0.00  0.00     0.028 C 
ATOM     10  C   LIG d   1     -13.496  63.390 120.671  0.00  0.00     0.006 C 
ENDBRANCH   8   9
BRANCH   8  11
ATOM     11  C   LIG d   1     -15.821  62.542 117.875  0.00  0.00     0.028 C 
ATOM     12  C   LIG d   1     -17.093  62.174 118.654  0.00  0.00     0.006 C 
ENDBRANCH   8  11
ENDBRANCH   7   8
ENDBRANCH   1   7
BRANCH   6  13
ATOM     13  N   LIG d   1     -16.091  65.674 115.488  0.00  0.00    -0.311 N 
ATOM     14  C   LIG d   1     -16.642  64.682 114.791  0.00  0.00     0.210 C 
ATOM     15  C   LIG d   1     -16.311  64.681 113.295  0.00  0.00     0.109 C 
ATOM     16  O   LIG d   1     -17.400  63.821 115.263  0.00  0.00    -0.276 OA
ATOM     17  H   LIG d   1     -15.516  66.346 115.019  0.00  0.00     0.149 HD
ENDBRANCH   6  13
BRANCH   5  18
ATOM     18  N   LIG d   1     -18.445  67.111 116.801  0.00  0.00     0.381 N 
ATOM     19  H   LIG d   1     -19.074  67.376 117.532  0.00  0.00    -0.090 HD
ATOM     20  H   LIG d   1     -18.675  66.178 116.509  0.00  0.00    -0.090 HD
ATOM     21  H   LIG d   1     -18.534  67.739 116.032  0.00  0.00    -0.090 HD
ENDBRANCH   5  18
BRANCH   3  22
ATOM     22  C   LIG d   1     -15.663  67.863 120.626  0.00  0.00     0.382 C 
ATOM     23  O   LIG d   1     -16.490  68.731 120.995  0.00  0.00    -0.241 OA
ATOM     24  O   LIG d   1     -14.637  67.665 121.305  0.00  0.00    -0.241 OA
ENDBRANCH   3  22
TORSDOF 7
ENDMDL
MODEL 9
REMARK VINA RESULT:      -4.3      3.048      7.111
REMARK  7 active torsions:
REMARK  status: ('A' for Active; 'I' for Inactive)
REMARK    1  A    between atoms: C_2  and  C_3 
REMARK    2  A    between atoms: C_3  and  O_6 
REMARK    3  A    between atoms: C_3  and  C_4 
REMARK    4  A    between atoms: C_7  and  O_6 
REMARK    5  A    between atoms: C_9  and  C_10 
REMARK    6  A    between atoms: N_15  and  C_14 
REMARK    7  A    between atoms: N_20  and  C_19 
REMARK       I    between atoms: C_22  and  N_20 
ROOT
ATOM      1  C   LIG d   1      -3.495  78.765 116.017  0.00  0.00     0.161 C 
ATOM      2  C   LIG d   1      -3.416  80.080 115.529  0.00  0.00     0.016 C 
ATOM      3  C   LIG d   1      -2.709  80.433 114.356  0.00  0.00     0.038 C 
ATOM      4  C   LIG d   1      -2.155  79.466 113.505  0.00  0.00     0.028 C 
ATOM      5  C   LIG d   1      -1.777  78.174 114.220  0.00  0.00    -0.047 C 
ATOM      6  C   LIG d   1      -2.991  77.681 115.042  0.00  0.00     0.091 C 
ENDROOT
BRANCH   1   7
ATOM      7  O   LIG d   1      -4.846  78.478 116.431  0.00  0.00    -0.368 OA
BRANCH   7   8
ATOM      8  C   LIG d   1      -5.012  78.031 117.799  0.00  0.00     0.119 C 
BRANCH   8   9
ATOM      9  C   LIG d   1      -6.003  76.851 117.783  0.00  0.00     0.028 C 
ATOM     10  C   LIG d   1      -6.727  76.711 116.433  0.00  0.00     0.006 C 
ENDBRANCH   8   9
BRANCH   8  11
ATOM     11  C   LIG d   1      -5.677  79.108 118.660  0.00  0.00     0.028 C 
ATOM     12  C   LIG d   1      -6.436  80.153 117.827  0.00  0.00     0.006 C 
ENDBRANCH   8  11
ENDBRANCH   7   8
ENDBRANCH   1   7
BRANCH   6  13
ATOM     13  N   LIG d   1      -2.680  76.467 115.840  0.00  0.00    -0.311 N 
ATOM     14  C   LIG d   1      -3.293  75.298 115.665  0.00  0.00     0.210 C 
ATOM     15  C   LIG d   1      -2.836  74.180 116.607  0.00  0.00     0.109 C 
ATOM     16  O   LIG d   1      -4.149  75.071 114.796  0.00  0.00    -0.276 OA
ATOM     17  H   LIG d   1      -1.976  76.553 116.546  0.00  0.00     0.149 HD
ENDBRANCH   6  13
BRANCH   5  18
ATOM     18  N   LIG d   1      -1.343  77.207 113.195  0.00  0.00     0.381 N 
ATOM     19  H   LIG d   1      -0.947  76.400 113.636  0.00  0.00    -0.090 HD
ATOM     20  H   LIG d   1      -0.634  77.634 112.625  0.00  0.00    -0.090 HD
ATOM     21  H   LIG d   1      -2.117  76.939 112.629  0.00  0.00    -0.090 HD
ENDBRANCH   5  18
BRANCH   3  22
ATOM     22  C   LIG d   1      -2.516  81.771 114.047  0.00  0.00     0.382 C 
ATOM     23  O   LIG d   1      -3.305  82.353 113.263  0.00  0.00    -0.241 OA
ATOM     24  O   LIG d   1      -1.539  82.391 114.506  0.00  0.00    -0.241 OA
ENDBRANCH   3  22
TORSDOF 7
ENDMDL
