MODEL 1
REMARK VINA RESULT:      -6.1      0.000      0.000
REMARK  7 active torsions:
REMARK  status: ('A' for Active; 'I' for Inactive)
REMARK    1  A    between atoms: C_2  and  C_3 
REMARK    2  A    between atoms: C_3  and  O_6 
REMARK    3  A    between atoms: C_3  and  C_4 
REMARK    4  A    between atoms: C_7  and  O_6 
REMARK    5  A    between atoms: C_9  and  C_10 
REMARK    6  A    between atoms: N_15  and  C_14 
REMARK    7  A    between atoms: N_20  and  C_19 
REMARK       I    between atoms: C_22  and  N_20 
ROOT
ATOM      1  C   LIG d   1      -7.782  74.854 116.542  0.00  0.00     0.161 C 
ATOM      2  C   LIG d   1      -6.622  74.839 115.749  0.00  0.00     0.016 C 
ATOM      3  C   LIG d   1      -5.780  75.962 115.581  0.00  0.00     0.038 C 
ATOM      4  C   LIG d   1      -5.960  77.141 116.321  0.00  0.00     0.028 C 
ATOM      5  C   LIG d   1      -7.405  77.373 116.749  0.00  0.00    -0.047 C 
ATOM      6  C   LIG d   1      -7.933  76.097 117.444  0.00  0.00     0.091 C 
ENDROOT
BRANCH   1   7
ATOM      7  O   LIG d   1      -7.849  73.651 117.332  0.00  0.00    -0.368 OA
BRANCH   7   8
ATOM      8  C   LIG d   1      -9.136  72.986 117.373  0.00  0.00     0.119 C 
BRANCH   8   9
ATOM      9  C   LIG d   1      -9.455  72.686 118.851  0.00  0.00     0.028 C 
ATOM     10  C   LIG d   1      -8.248  72.928 119.773  0.00  0.00     0.006 C 
ENDBRANCH   8   9
BRANCH   8  11
ATOM     11  C   LIG d   1      -9.080  71.619 116.685  0.00  0.00     0.028 C 
ATOM     12  C   LIG d   1      -7.642  71.139 116.430  0.00  0.00     0.006 C 
ENDBRANCH   8  11
ENDBRANCH   7   8
ENDBRANCH   1   7
BRANCH   6  13
ATOM     13  N   LIG d   1      -9.367  76.208 117.819  0.00  0.00    -0.311 N 
ATOM     14  C   LIG d   1      -9.790  76.291 119.079  0.00  0.00     0.210 C 
ATOM     15  C   LIG d   1     -11.311  76.378 119.246  0.00  0.00     0.109 C 
ATOM     16  O   LIG d   1      -9.049  76.332 120.073  0.00  0.00    -0.276 OA
ATOM     17  H   LIG d   1     -10.035  76.214 117.073  0.00  0.00     0.149 HD
ENDBRANCH   6  13
BRANCH   5  18
ATOM     18  N   LIG d   1      -7.425  78.559 117.625  0.00  0.00     0.381 N 
ATOM     19  H   LIG d   1      -6.732  79.215 117.324  0.00  0.00    -0.090 HD
ATOM     20  H   LIG d   1      -7.204  78.274 118.563  0.00  0.00    -0.090 HD
ATOM     21  H   LIG d   1      -8.326  78.984 117.603  0.00  0.00    -0.090 HD
ENDBRANCH   5  18
BRANCH   3  22
ATOM     22  C   LIG d   1      -4.767  75.926 114.635  0.00  0.00     0.382 C 
ATOM     23  O   LIG d   1      -4.992  76.304 113.460  0.00  0.00    -0.241 OA
ATOM     24  O   LIG d   1      -3.642  75.479 114.931  0.00  0.00    -0.241 OA
ENDBRANCH   3  22
TORSDOF 7
ENDMDL
MODEL 2
REMARK VINA RESULT:      -5.8      1.119      1.819
REMARK  7 active torsions:
REMARK  status: ('A' for Active; 'I' for Inactive)
REMARK    1  A    between atoms: C_2  and  C_3 
REMARK    2  A    between atoms: C_3  and  O_6 
REMARK    3  A    between atoms: C_3  and  C_4 
REMARK    4  A    between atoms: C_7  and  O_6 
REMARK    5  A    between atoms: C_9  and  C_10 
REMARK    6  A    between atoms: N_15  and  C_14 
REMARK    7  A    between atoms: N_20  and  C_19 
REMARK       I    between atoms: C_22  and  N_20 
ROOT
ATOM      1  C   LIG d   1      -8.461  75.867 116.286  0.00  0.00     0.161 C 
ATOM      2  C   LIG d   1      -7.481  75.412 115.389  0.00  0.00     0.016 C 
ATOM      3  C   LIG d   1      -6.158  75.911 115.363  0.00  0.00     0.038 C 
ATOM      4  C   LIG d   1      -5.681  76.797 116.341  0.00  0.00     0.028 C 
ATOM      5  C   LIG d   1      -6.773  77.664 116.958  0.00  0.00    -0.047 C 
ATOM      6  C   LIG d   1      -7.928  76.753 117.432  0.00  0.00     0.091 C 
ENDROOT
BRANCH   1   7
ATOM      7  O   LIG d   1      -9.194  74.746 116.819  0.00  0.00    -0.368 OA
BRANCH   7   8
ATOM      8  C   LIG d   1      -8.410  73.575 117.156  0.00  0.00     0.119 C 
BRANCH   8   9
ATOM      9  C   LIG d   1      -9.186  72.339 116.660  0.00  0.00     0.028 C 
ATOM     10  C   LIG d   1      -8.340  71.056 116.708  0.00  0.00     0.006 C 
ENDBRANCH   8   9
BRANCH   8  11
ATOM     11  C   LIG d   1      -8.295  73.399 118.673  0.00  0.00     0.028 C 
ATOM     12  C   LIG d   1      -9.661  73.250 119.361  0.00  0.00     0.006 C 
ENDBRANCH   8  11
ENDBRANCH   7   8
ENDBRANCH   1   7
BRANCH   6  13
ATOM     13  N   LIG d   1      -9.076  77.528 117.972  0.00  0.00    -0.311 N 
ATOM     14  C   LIG d   1      -9.559  77.361 119.202  0.00  0.00     0.210 C 
ATOM     15  C   LIG d   1     -10.758  78.247 119.552  0.00  0.00     0.109 C 
ATOM     16  O   LIG d   1      -9.087  76.586 120.048  0.00  0.00    -0.276 OA
ATOM     17  H   LIG d   1      -9.499  78.201 117.364  0.00  0.00     0.149 HD
ENDBRANCH   6  13
BRANCH   5  18
ATOM     18  N   LIG d   1      -6.161  78.439 118.053  0.00  0.00     0.381 N 
ATOM     19  H   LIG d   1      -5.958  77.834 118.824  0.00  0.00    -0.090 HD
ATOM     20  H   LIG d   1      -6.815  79.136 118.363  0.00  0.00    -0.090 HD
ATOM     21  H   LIG d   1      -5.324  78.875 117.736  0.00  0.00    -0.090 HD
ENDBRANCH   5  18
BRANCH   3  22
ATOM     22  C   LIG d   1      -5.309  75.553 114.327  0.00  0.00     0.382 C 
ATOM     23  O   LIG d   1      -4.493  76.388 113.869  0.00  0.00    -0.241 OA
ATOM     24  O   LIG d   1      -5.379  74.419 113.816  0.00  0.00    -0.241 OA
ENDBRANCH   3  22
TORSDOF 7
ENDMDL
MODEL 3
REMARK VINA RESULT:      -5.6      1.399      2.002
REMARK  7 active torsions:
REMARK  status: ('A' for Active; 'I' for Inactive)
REMARK    1  A    between atoms: C_2  and  C_3 
REMARK    2  A    between atoms: C_3  and  O_6 
REMARK    3  A    between atoms: C_3  and  C_4 
REMARK    4  A    between atoms: C_7  and  O_6 
REMARK    5  A    between atoms: C_9  and  C_10 
REMARK    6  A    between atoms: N_15  and  C_14 
REMARK    7  A    between atoms: N_20  and  C_19 
REMARK       I    between atoms: C_22  and  N_20 
ROOT
ATOM      1  C   LIG d   1      -7.698  75.922 117.023  0.00  0.00     0.161 C 
ATOM      2  C   LIG d   1      -6.937  75.429 115.950  0.00  0.00     0.016 C 
ATOM      3  C   LIG d   1      -5.784  76.077 115.451  0.00  0.00     0.038 C 
ATOM      4  C   LIG d   1      -5.224  77.191 116.093  0.00  0.00     0.028 C 
ATOM      5  C   LIG d   1      -6.242  78.016 116.874  0.00  0.00    -0.047 C 
ATOM      6  C   LIG d   1      -7.039  77.076 117.807  0.00  0.00     0.091 C 
ENDROOT
BRANCH   1   7
ATOM      7  O   LIG d   1      -8.042  74.842 117.915  0.00  0.00    -0.368 OA
BRANCH   7   8
ATOM      8  C   LIG d   1      -9.377  74.298 117.772  0.00  0.00     0.119 C 
BRANCH   8   9
ATOM      9  C   LIG d   1     -10.283  75.024 118.785  0.00  0.00     0.028 C 
ATOM     10  C   LIG d   1     -11.205  76.056 118.113  0.00  0.00     0.006 C 
ENDBRANCH   8   9
BRANCH   8  11
ATOM     11  C   LIG d   1      -9.422  72.821 118.173  0.00  0.00     0.028 C 
ATOM     12  C   LIG d   1      -9.208  71.873 116.982  0.00  0.00     0.006 C 
ENDBRANCH   8  11
ENDBRANCH   7   8
ENDBRANCH   1   7
BRANCH   6  13
ATOM     13  N   LIG d   1      -8.113  77.788 118.546  0.00  0.00    -0.311 N 
ATOM     14  C   LIG d   1      -8.183  77.833 119.875  0.00  0.00     0.210 C 
ATOM     15  C   LIG d   1      -9.382  78.605 120.435  0.00  0.00     0.109 C 
ATOM     16  O   LIG d   1      -7.347  77.335 120.645  0.00  0.00    -0.276 OA
ATOM     17  H   LIG d   1      -8.816  78.247 118.000  0.00  0.00     0.149 HD
ENDBRANCH   6  13
BRANCH   5  18
ATOM     18  N   LIG d   1      -5.501  79.063 117.603  0.00  0.00     0.381 N 
ATOM     19  H   LIG d   1      -4.727  78.655 118.087  0.00  0.00    -0.090 HD
ATOM     20  H   LIG d   1      -6.113  79.480 118.282  0.00  0.00    -0.090 HD
ATOM     21  H   LIG d   1      -5.177  79.757 116.967  0.00  0.00    -0.090 HD
ENDBRANCH   5  18
BRANCH   3  22
ATOM     22  C   LIG d   1      -5.203  75.634 114.272  0.00  0.00     0.382 C 
ATOM     23  O   LIG d   1      -5.415  74.465 113.869  0.00  0.00    -0.241 OA
ATOM     24  O   LIG d   1      -4.433  76.374 113.631  0.00  0.00    -0.241 OA
ENDBRANCH   3  22
TORSDOF 7
ENDMDL
MODEL 4
REMARK VINA RESULT:      -5.5      2.236      4.564
REMARK  7 active torsions:
REMARK  status: ('A' for Active; 'I' for Inactive)
REMARK    1  A    between atoms: C_2  and  C_3 
REMARK    2  A    between atoms: C_3  and  O_6 
REMARK    3  A    between atoms: C_3  and  C_4 
REMARK    4  A    between atoms: C_7  and  O_6 
REMARK    5  A    between atoms: C_9  and  C_10 
REMARK    6  A    between atoms: N_15  and  C_14 
REMARK    7  A    between atoms: N_20  and  C_19 
REMARK       I    between atoms: C_22  and  N_20 
ROOT
ATOM      1  C   LIG d   1      -7.262  74.783 118.352  0.00  0.00     0.161 C 
ATOM      2  C   LIG d   1      -7.315  73.484 117.818  0.00  0.00     0.016 C 
ATOM      3  C   LIG d   1      -8.480  72.926 117.244  0.00  0.00     0.038 C 
ATOM      4  C   LIG d   1      -9.638  73.687 117.028  0.00  0.00     0.028 C 
ATOM      5  C   LIG d   1      -9.793  74.846 118.007  0.00  0.00    -0.047 C 
ATOM      6  C   LIG d   1      -8.483  75.667 118.024  0.00  0.00     0.091 C 
ENDROOT
BRANCH   1   7
ATOM      7  O   LIG d   1      -6.046  75.434 117.933  0.00  0.00    -0.368 OA
BRANCH   7   8
ATOM      8  C   LIG d   1      -5.341  74.818 116.827  0.00  0.00     0.119 C 
BRANCH   8   9
ATOM      9  C   LIG d   1      -3.841  74.811 117.180  0.00  0.00     0.028 C 
ATOM     10  C   LIG d   1      -3.466  75.925 118.172  0.00  0.00     0.006 C 
ENDBRANCH   8   9
BRANCH   8  11
ATOM     11  C   LIG d   1      -5.454  75.664 115.555  0.00  0.00     0.028 C 
ATOM     12  C   LIG d   1      -5.712  74.818 114.298  0.00  0.00     0.006 C 
ENDBRANCH   8  11
ENDBRANCH   7   8
ENDBRANCH   1   7
BRANCH   6  13
ATOM     13  N   LIG d   1      -8.519  76.771 119.019  0.00  0.00    -0.311 N 
ATOM     14  C   LIG d   1      -8.375  78.055 118.694  0.00  0.00     0.210 C 
ATOM     15  C   LIG d   1      -8.424  79.029 119.875  0.00  0.00     0.109 C 
ATOM     16  O   LIG d   1      -8.244  78.481 117.537  0.00  0.00    -0.276 OA
ATOM     17  H   LIG d   1      -8.652  76.516 119.978  0.00  0.00     0.149 HD
ENDBRANCH   6  13
BRANCH   5  18
ATOM     18  N   LIG d   1     -10.965  75.635 117.582  0.00  0.00     0.381 N 
ATOM     19  H   LIG d   1     -11.137  75.487 116.608  0.00  0.00    -0.090 HD
ATOM     20  H   LIG d   1     -10.768  76.610 117.723  0.00  0.00    -0.090 HD
ATOM     21  H   LIG d   1     -11.765  75.370 118.113  0.00  0.00    -0.090 HD
ENDBRANCH   5  18
BRANCH   3  22
ATOM     22  C   LIG d   1      -8.507  71.579 116.917  0.00  0.00     0.382 C 
ATOM     23  O   LIG d   1      -9.359  70.822 117.443  0.00  0.00    -0.241 OA
ATOM     24  O   LIG d   1      -7.662  71.101 116.136  0.00  0.00    -0.241 OA
ENDBRANCH   3  22
TORSDOF 7
ENDMDL
MODEL 5
REMARK VINA RESULT:      -5.4      2.148      4.827
REMARK  7 active torsions:
REMARK  status: ('A' for Active; 'I' for Inactive)
REMARK    1  A    between atoms: C_2  and  C_3 
REMARK    2  A    between atoms: C_3  and  O_6 
REMARK    3  A    between atoms: C_3  and  C_4 
REMARK    4  A    between atoms: C_7  and  O_6 
REMARK    5  A    between atoms: C_9  and  C_10 
REMARK    6  A    between atoms: N_15  and  C_14 
REMARK    7  A    between atoms: N_20  and  C_19 
REMARK       I    between atoms: C_22  and  N_20 
ROOT
ATOM      1  C   LIG d   1      -7.171  74.744 118.307  0.00  0.00     0.161 C 
ATOM      2  C   LIG d   1      -7.260  73.458 117.750  0.00  0.00     0.016 C 
ATOM      3  C   LIG d   1      -8.465  72.905 117.258  0.00  0.00     0.038 C 
ATOM      4  C   LIG d   1      -9.640  73.664 117.151  0.00  0.00     0.028 C 
ATOM      5  C   LIG d   1      -9.721  74.800 118.165  0.00  0.00    -0.047 C 
ATOM      6  C   LIG d   1      -8.418  75.628 118.097  0.00  0.00     0.091 C 
ENDROOT
BRANCH   1   7
ATOM      7  O   LIG d   1      -5.994  75.412 117.808  0.00  0.00    -0.368 OA
BRANCH   7   8
ATOM      8  C   LIG d   1      -6.109  76.009 116.494  0.00  0.00     0.119 C 
BRANCH   8   9
ATOM      9  C   LIG d   1      -5.088  75.309 115.576  0.00  0.00     0.028 C 
ATOM     10  C   LIG d   1      -5.703  74.882 114.232  0.00  0.00     0.006 C 
ENDBRANCH   8   9
BRANCH   8  11
ATOM     11  C   LIG d   1      -5.692  77.483 116.513  0.00  0.00     0.028 C 
ATOM     12  C   LIG d   1      -5.154  77.932 117.881  0.00  0.00     0.006 C 
ENDBRANCH   8  11
ENDBRANCH   7   8
ENDBRANCH   1   7
BRANCH   6  13
ATOM     13  N   LIG d   1      -8.379  76.710 119.115  0.00  0.00    -0.311 N 
ATOM     14  C   LIG d   1      -8.734  77.968 118.862  0.00  0.00     0.210 C 
ATOM     15  C   LIG d   1      -8.600  78.929 120.048  0.00  0.00     0.109 C 
ATOM     16  O   LIG d   1      -9.178  78.374 117.778  0.00  0.00    -0.276 OA
ATOM     17  H   LIG d   1      -8.061  76.462 120.032  0.00  0.00     0.149 HD
ENDBRANCH   6  13
BRANCH   5  18
ATOM     18  N   LIG d   1     -10.926  75.592 117.852  0.00  0.00     0.381 N 
ATOM     19  H   LIG d   1     -11.421  75.802 118.695  0.00  0.00    -0.090 HD
ATOM     20  H   LIG d   1     -11.528  75.047 117.260  0.00  0.00    -0.090 HD
ATOM     21  H   LIG d   1     -10.669  76.436 117.389  0.00  0.00    -0.090 HD
ENDBRANCH   5  18
BRANCH   3  22
ATOM     22  C   LIG d   1      -8.512  71.565 116.903  0.00  0.00     0.382 C 
ATOM     23  O   LIG d   1      -7.711  71.114 116.049  0.00  0.00    -0.241 OA
ATOM     24  O   LIG d   1      -9.374  70.812 117.394  0.00  0.00    -0.241 OA
ENDBRANCH   3  22
TORSDOF 7
ENDMDL
MODEL 6
REMARK VINA RESULT:      -5.3      2.022      4.783
REMARK  7 active torsions:
REMARK  status: ('A' for Active; 'I' for Inactive)
REMARK    1  A    between atoms: C_2  and  C_3 
REMARK    2  A    between atoms: C_3  and  O_6 
REMARK    3  A    between atoms: C_3  and  C_4 
REMARK    4  A    between atoms: C_7  and  O_6 
REMARK    5  A    between atoms: C_9  and  C_10 
REMARK    6  A    between atoms: N_15  and  C_14 
REMARK    7  A    between atoms: N_20  and  C_19 
REMARK       I    between atoms: C_22  and  N_20 
ROOT
ATOM      1  C   LIG d   1      -7.655  75.591 118.979  0.00  0.00     0.161 C 
ATOM      2  C   LIG d   1      -8.857  76.290 119.180  0.00  0.00     0.016 C 
ATOM      3  C   LIG d   1      -9.135  77.545 118.590  0.00  0.00     0.038 C 
ATOM      4  C   LIG d   1      -8.285  78.119 117.633  0.00  0.00     0.028 C 
ATOM      5  C   LIG d   1      -6.829  77.692 117.781  0.00  0.00    -0.047 C 
ATOM      6  C   LIG d   1      -6.763  76.149 117.850  0.00  0.00     0.091 C 
ENDROOT
BRANCH   1   7
ATOM      7  O   LIG d   1      -7.934  74.195 118.753  0.00  0.00    -0.368 OA
BRANCH   7   8
ATOM      8  C   LIG d   1      -8.189  73.810 117.380  0.00  0.00     0.119 C 
BRANCH   8   9
ATOM      9  C   LIG d   1      -9.702  73.554 117.244  0.00  0.00     0.028 C 
ATOM     10  C   LIG d   1     -10.418  74.669 116.464  0.00  0.00     0.006 C 
ENDBRANCH   8   9
BRANCH   8  11
ATOM     11  C   LIG d   1      -7.520  72.474 117.043  0.00  0.00     0.028 C 
ATOM     12  C   LIG d   1      -8.534  71.352 116.768  0.00  0.00     0.006 C 
ENDBRANCH   8  11
ENDBRANCH   7   8
ENDBRANCH   1   7
BRANCH   6  13
ATOM     13  N   LIG d   1      -5.382  75.650 118.079  0.00  0.00    -0.311 N 
ATOM     14  C   LIG d   1      -4.566  75.274 117.097  0.00  0.00     0.210 C 
ATOM     15  C   LIG d   1      -3.192  74.773 117.553  0.00  0.00     0.109 C 
ATOM     16  O   LIG d   1      -4.837  75.339 115.888  0.00  0.00    -0.276 OA
ATOM     17  H   LIG d   1      -5.070  75.594 119.029  0.00  0.00     0.149 HD
ENDBRANCH   6  13
BRANCH   5  18
ATOM     18  N   LIG d   1      -6.082  78.252 116.639  0.00  0.00     0.381 N 
ATOM     19  H   LIG d   1      -5.646  79.112 116.909  0.00  0.00    -0.090 HD
ATOM     20  H   LIG d   1      -6.726  78.445 115.893  0.00  0.00    -0.090 HD
ATOM     21  H   LIG d   1      -5.391  77.603 116.333  0.00  0.00    -0.090 HD
ENDBRANCH   5  18
BRANCH   3  22
ATOM     22  C   LIG d   1     -10.255  78.258 118.988  0.00  0.00     0.382 C 
ATOM     23  O   LIG d   1     -11.009  77.796 119.878  0.00  0.00    -0.241 OA
ATOM     24  O   LIG d   1     -10.546  79.337 118.438  0.00  0.00    -0.241 OA
ENDBRANCH   3  22
TORSDOF 7
ENDMDL
MODEL 7
REMARK VINA RESULT:      -5.3     17.309     19.324
REMARK  7 active torsions:
REMARK  status: ('A' for Active; 'I' for Inactive)
REMARK    1  A    between atoms: C_2  and  C_3 
REMARK    2  A    between atoms: C_3  and  O_6 
REMARK    3  A    between atoms: C_3  and  C_4 
REMARK    4  A    between atoms: C_7  and  O_6 
REMARK    5  A    between atoms: C_9  and  C_10 
REMARK    6  A    between atoms: N_15  and  C_14 
REMARK    7  A    between atoms: N_20  and  C_19 
REMARK       I    between atoms: C_22  and  N_20 
ROOT
ATOM      1  C   LIG d   1       0.771  57.454 118.039  0.00  0.00     0.161 C 
ATOM      2  C   LIG d   1       0.679  58.451 117.054  0.00  0.00     0.016 C 
ATOM      3  C   LIG d   1      -0.550  58.942 116.556  0.00  0.00     0.038 C 
ATOM      4  C   LIG d   1      -1.779  58.574 117.122  0.00  0.00     0.028 C 
ATOM      5  C   LIG d   1      -1.757  57.195 117.775  0.00  0.00    -0.047 C 
ATOM      6  C   LIG d   1      -0.558  57.120 118.747  0.00  0.00     0.091 C 
ENDROOT
BRANCH   1   7
ATOM      7  O   LIG d   1       1.778  57.813 119.006  0.00  0.00    -0.368 OA
BRANCH   7   8
ATOM      8  C   LIG d   1       2.251  59.182 118.954  0.00  0.00     0.119 C 
BRANCH   8   9
ATOM      9  C   LIG d   1       3.788  59.136 118.845  0.00  0.00     0.028 C 
ATOM     10  C   LIG d   1       4.286  59.463 117.427  0.00  0.00     0.006 C 
ENDBRANCH   8   9
BRANCH   8  11
ATOM     11  C   LIG d   1       1.959  59.923 120.262  0.00  0.00     0.028 C 
ATOM     12  C   LIG d   1       0.479  60.308 120.411  0.00  0.00     0.006 C 
ENDBRANCH   8  11
ENDBRANCH   7   8
ENDBRANCH   1   7
BRANCH   6  13
ATOM     13  N   LIG d   1      -0.414  55.776 119.365  0.00  0.00    -0.311 N 
ATOM     14  C   LIG d   1      -0.945  55.449 120.542  0.00  0.00     0.210 C 
ATOM     15  C   LIG d   1      -0.659  54.017 121.005  0.00  0.00     0.109 C 
ATOM     16  O   LIG d   1      -1.653  56.198 121.231  0.00  0.00    -0.276 OA
ATOM     17  H   LIG d   1       0.120  55.096 118.859  0.00  0.00     0.149 HD
ENDBRANCH   6  13
BRANCH   5  18
ATOM     18  N   LIG d   1      -3.057  56.998 118.443  0.00  0.00     0.381 N 
ATOM     19  H   LIG d   1      -2.914  56.618 119.357  0.00  0.00    -0.090 HD
ATOM     20  H   LIG d   1      -3.600  56.341 117.910  0.00  0.00    -0.090 HD
ATOM     21  H   LIG d   1      -3.543  57.865 118.508  0.00  0.00    -0.090 HD
ENDBRANCH   5  18
BRANCH   3  22
ATOM     22  C   LIG d   1      -0.558  59.782 115.453  0.00  0.00     0.382 C 
ATOM     23  O   LIG d   1       0.525  60.148 114.935  0.00  0.00    -0.241 OA
ATOM     24  O   LIG d   1      -1.633  60.215 114.996  0.00  0.00    -0.241 OA
ENDBRANCH   3  22
TORSDOF 7
ENDMDL
MODEL 8
REMARK VINA RESULT:      -5.3      2.382      4.513
REMARK  7 active torsions:
REMARK  status: ('A' for Active; 'I' for Inactive)
REMARK    1  A    between atoms: C_2  and  C_3 
REMARK    2  A    between atoms: C_3  and  O_6 
REMARK    3  A    between atoms: C_3  and  C_4 
REMARK    4  A    between atoms: C_7  and  O_6 
REMARK    5  A    between atoms: C_9  and  C_10 
REMARK    6  A    between atoms: N_15  and  C_14 
REMARK    7  A    between atoms: N_20  and  C_19 
REMARK       I    between atoms: C_22  and  N_20 
ROOT
ATOM      1  C   LIG d   1      -7.694  76.269 117.513  0.00  0.00     0.161 C 
ATOM      2  C   LIG d   1      -7.551  77.665 117.440  0.00  0.00     0.016 C 
ATOM      3  C   LIG d   1      -8.547  78.572 117.869  0.00  0.00     0.038 C 
ATOM      4  C   LIG d   1      -9.700  78.144 118.544  0.00  0.00     0.028 C 
ATOM      5  C   LIG d   1     -10.117  76.721 118.187  0.00  0.00    -0.047 C 
ATOM      6  C   LIG d   1      -8.898  75.785 118.349  0.00  0.00     0.091 C 
ENDROOT
BRANCH   1   7
ATOM      7  O   LIG d   1      -6.474  75.678 118.003  0.00  0.00    -0.368 OA
BRANCH   7   8
ATOM      8  C   LIG d   1      -5.742  74.855 117.062  0.00  0.00     0.119 C 
BRANCH   8   9
ATOM      9  C   LIG d   1      -4.439  75.599 116.712  0.00  0.00     0.028 C 
ATOM     10  C   LIG d   1      -3.205  74.969 117.379  0.00  0.00     0.006 C 
ENDBRANCH   8   9
BRANCH   8  11
ATOM     11  C   LIG d   1      -6.499  74.716 115.737  0.00  0.00     0.028 C 
ATOM     12  C   LIG d   1      -5.653  75.128 114.522  0.00  0.00     0.006 C 
ENDBRANCH   8  11
ENDBRANCH   7   8
ENDBRANCH   1   7
BRANCH   6  13
ATOM     13  N   LIG d   1      -9.197  74.388 117.939  0.00  0.00    -0.311 N 
ATOM     14  C   LIG d   1      -8.987  73.333 118.724  0.00  0.00     0.210 C 
ATOM     15  C   LIG d   1      -9.346  71.981 118.099  0.00  0.00     0.109 C 
ATOM     16  O   LIG d   1      -8.567  73.391 119.889  0.00  0.00    -0.276 OA
ATOM     17  H   LIG d   1      -9.570  74.253 117.020  0.00  0.00     0.149 HD
ENDBRANCH   6  13
BRANCH   5  18
ATOM     18  N   LIG d   1     -11.247  76.356 119.063  0.00  0.00     0.381 N 
ATOM     19  H   LIG d   1     -11.123  75.423 119.404  0.00  0.00    -0.090 HD
ATOM     20  H   LIG d   1     -12.096  76.386 118.526  0.00  0.00    -0.090 HD
ATOM     21  H   LIG d   1     -11.306  76.992 119.827  0.00  0.00    -0.090 HD
ENDBRANCH   5  18
BRANCH   3  22
ATOM     22  C   LIG d   1      -8.413  79.923 117.587  0.00  0.00     0.382 C 
ATOM     23  O   LIG d   1      -9.356  80.712 117.835  0.00  0.00    -0.241 OA
ATOM     24  O   LIG d   1      -7.377  80.356 117.046  0.00  0.00    -0.241 OA
ENDBRANCH   3  22
TORSDOF 7
ENDMDL
MODEL 9
REMARK VINA RESULT:      -5.1      2.358      4.873
REMARK  7 active torsions:
REMARK  status: ('A' for Active; 'I' for Inactive)
REMARK    1  A    between atoms: C_2  and  C_3 
REMARK    2  A    between atoms: C_3  and  O_6 
REMARK    3  A    between atoms: C_3  and  C_4 
REMARK    4  A    between atoms: C_7  and  O_6 
REMARK    5  A    between atoms: C_9  and  C_10 
REMARK    6  A    between atoms: N_15  and  C_14 
REMARK    7  A    between atoms: N_20  and  C_19 
REMARK       I    between atoms: C_22  and  N_20 
ROOT
ATOM      1  C   LIG d   1      -7.309  77.628 117.327  0.00  0.00     0.161 C 
ATOM      2  C   LIG d   1      -6.277  77.334 116.420  0.00  0.00     0.016 C 
ATOM      3  C   LIG d   1      -6.206  76.126 115.688  0.00  0.00     0.038 C 
ATOM      4  C   LIG d   1      -7.248  75.188 115.702  0.00  0.00     0.028 C 
ATOM      5  C   LIG d   1      -8.068  75.212 116.988  0.00  0.00    -0.047 C 
ATOM      6  C   LIG d   1      -8.513  76.665 117.272  0.00  0.00     0.091 C 
ENDROOT
BRANCH   1   7
ATOM      7  O   LIG d   1      -7.747  78.989 117.144  0.00  0.00    -0.368 OA
BRANCH   7   8
ATOM      8  C   LIG d   1      -7.389  79.920 118.194  0.00  0.00     0.119 C 
BRANCH   8   9
ATOM      9  C   LIG d   1      -8.689  80.330 118.913  0.00  0.00     0.028 C 
ATOM     10  C   LIG d   1      -9.908  80.313 117.976  0.00  0.00     0.006 C 
ENDBRANCH   8   9
BRANCH   8  11
ATOM     11  C   LIG d   1      -6.819  81.219 117.616  0.00  0.00     0.028 C 
ATOM     12  C   LIG d   1      -5.374  81.066 117.117  0.00  0.00     0.006 C 
ENDBRANCH   8  11
ENDBRANCH   7   8
ENDBRANCH   1   7
BRANCH   6  13
ATOM     13  N   LIG d   1      -9.249  76.791 118.557  0.00  0.00    -0.311 N 
ATOM     14  C   LIG d   1     -10.570  76.655 118.662  0.00  0.00     0.210 C 
ATOM     15  C   LIG d   1     -11.129  76.844 120.075  0.00  0.00     0.109 C 
ATOM     16  O   LIG d   1     -11.327  76.364 117.724  0.00  0.00    -0.276 OA
ATOM     17  H   LIG d   1      -8.708  76.995 119.374  0.00  0.00     0.149 HD
ENDBRANCH   6  13
BRANCH   5  18
ATOM     18  N   LIG d   1      -9.201  74.284 116.811  0.00  0.00     0.381 N 
ATOM     19  H   LIG d   1     -10.062  74.794 116.823  0.00  0.00    -0.090 HD
ATOM     20  H   LIG d   1      -9.210  73.633 117.577  0.00  0.00    -0.090 HD
ATOM     21  H   LIG d   1      -9.109  73.793 115.949  0.00  0.00    -0.090 HD
ENDBRANCH   5  18
BRANCH   3  22
ATOM     22  C   LIG d   1      -5.062  75.829 114.962  0.00  0.00     0.382 C 
ATOM     23  O   LIG d   1      -4.015  75.477 115.558  0.00  0.00    -0.241 OA
ATOM     24  O   LIG d   1      -5.051  75.951 113.723  0.00  0.00    -0.241 OA
ENDBRANCH   3  22
TORSDOF 7
ENDMDL
