MODEL 1
REMARK VINA RESULT:      -6.2      0.000      0.000
REMARK  7 active torsions:
REMARK  status: ('A' for Active; 'I' for Inactive)
REMARK    1  A    between atoms: C_2  and  C_3 
REMARK    2  A    between atoms: C_3  and  O_6 
REMARK    3  A    between atoms: C_3  and  C_4 
REMARK    4  A    between atoms: C_7  and  O_6 
REMARK    5  A    between atoms: C_9  and  C_10 
REMARK    6  A    between atoms: N_15  and  C_14 
REMARK    7  A    between atoms: N_20  and  C_19 
REMARK       I    between atoms: C_22  and  N_20 
ROOT
ATOM      1  C   LIG d   1      -7.505  75.796 116.788  0.00  0.00     0.161 C 
ATOM      2  C   LIG d   1      -6.393  75.433 116.010  0.00  0.00     0.016 C 
ATOM      3  C   LIG d   1      -5.245  76.245 115.866  0.00  0.00     0.038 C 
ATOM      4  C   LIG d   1      -5.067  77.417 116.618  0.00  0.00     0.028 C 
ATOM      5  C   LIG d   1      -6.378  78.076 117.031  0.00  0.00    -0.047 C 
ATOM      6  C   LIG d   1      -7.282  77.018 117.703  0.00  0.00     0.091 C 
ENDROOT
BRANCH   1   7
ATOM      7  O   LIG d   1      -7.950  74.665 117.562  0.00  0.00    -0.368 OA
BRANCH   7   8
ATOM      8  C   LIG d   1      -8.656  73.631 116.832  0.00  0.00     0.119 C 
BRANCH   8   9
ATOM      9  C   LIG d   1     -10.038  73.461 117.492  0.00  0.00     0.028 C 
ATOM     10  C   LIG d   1     -10.863  74.759 117.470  0.00  0.00     0.006 C 
ENDBRANCH   8   9
BRANCH   8  11
ATOM     11  C   LIG d   1      -7.965  72.272 116.982  0.00  0.00     0.028 C 
ATOM     12  C   LIG d   1      -8.961  71.105 117.070  0.00  0.00     0.006 C 
ENDBRANCH   8  11
ENDBRANCH   7   8
ENDBRANCH   1   7
BRANCH   6  13
ATOM     13  N   LIG d   1      -8.619  77.560 118.062  0.00  0.00    -0.311 N 
ATOM     14  C   LIG d   1      -9.142  77.472 119.283  0.00  0.00     0.210 C 
ATOM     15  C   LIG d   1     -10.541  78.079 119.433  0.00  0.00     0.109 C 
ATOM     16  O   LIG d   1      -8.567  76.978 120.265  0.00  0.00    -0.276 OA
ATOM     17  H   LIG d   1      -9.141  78.006 117.333  0.00  0.00     0.149 HD
ENDBRANCH   6  13
BRANCH   5  18
ATOM     18  N   LIG d   1      -6.048  79.205 117.922  0.00  0.00     0.381 N 
ATOM     19  H   LIG d   1      -6.167  78.929 118.876  0.00  0.00    -0.090 HD
ATOM     20  H   LIG d   1      -6.679  79.964 117.732  0.00  0.00    -0.090 HD
ATOM     21  H   LIG d   1      -5.108  79.498 117.767  0.00  0.00    -0.090 HD
ENDBRANCH   5  18
BRANCH   3  22
ATOM     22  C   LIG d   1      -4.276  75.908 114.933  0.00  0.00     0.382 C 
ATOM     23  O   LIG d   1      -4.351  76.355 113.763  0.00  0.00    -0.241 OA
ATOM     24  O   LIG d   1      -3.353  75.128 115.234  0.00  0.00    -0.241 OA
ENDBRANCH   3  22
TORSDOF 7
ENDMDL
MODEL 2
REMARK VINA RESULT:      -6.1      1.002      1.818
REMARK  7 active torsions:
REMARK  status: ('A' for Active; 'I' for Inactive)
REMARK    1  A    between atoms: C_2  and  C_3 
REMARK    2  A    between atoms: C_3  and  O_6 
REMARK    3  A    between atoms: C_3  and  C_4 
REMARK    4  A    between atoms: C_7  and  O_6 
REMARK    5  A    between atoms: C_9  and  C_10 
REMARK    6  A    between atoms: N_15  and  C_14 
REMARK    7  A    between atoms: N_20  and  C_19 
REMARK       I    between atoms: C_22  and  N_20 
ROOT
ATOM      1  C   LIG d   1      -7.218  75.965 116.291  0.00  0.00     0.161 C 
ATOM      2  C   LIG d   1      -6.016  75.464 115.765  0.00  0.00     0.016 C 
ATOM      3  C   LIG d   1      -4.761  75.630 116.395  0.00  0.00     0.038 C 
ATOM      4  C   LIG d   1      -4.643  76.183 117.679  0.00  0.00     0.028 C 
ATOM      5  C   LIG d   1      -5.766  77.155 118.025  0.00  0.00    -0.047 C 
ATOM      6  C   LIG d   1      -7.125  76.473 117.745  0.00  0.00     0.091 C 
ENDROOT
BRANCH   1   7
ATOM      7  O   LIG d   1      -8.255  74.971 116.173  0.00  0.00    -0.368 OA
BRANCH   7   8
ATOM      8  C   LIG d   1      -8.324  73.992 117.240  0.00  0.00     0.119 C 
BRANCH   8   9
ATOM      9  C   LIG d   1      -7.628  72.712 116.739  0.00  0.00     0.028 C 
ATOM     10  C   LIG d   1      -8.519  71.466 116.880  0.00  0.00     0.006 C 
ENDBRANCH   8   9
BRANCH   8  11
ATOM     11  C   LIG d   1      -9.772  73.581 117.526  0.00  0.00     0.028 C 
ATOM     12  C   LIG d   1     -10.751  74.764 117.460  0.00  0.00     0.006 C 
ENDBRANCH   8  11
ENDBRANCH   7   8
ENDBRANCH   1   7
BRANCH   6  13
ATOM     13  N   LIG d   1      -8.275  77.385 117.978  0.00  0.00    -0.311 N 
ATOM     14  C   LIG d   1      -8.935  77.453 119.133  0.00  0.00     0.210 C 
ATOM     15  C   LIG d   1     -10.102  78.445 119.153  0.00  0.00     0.109 C 
ATOM     16  O   LIG d   1      -8.644  76.810 120.152  0.00  0.00    -0.276 OA
ATOM     17  H   LIG d   1      -8.559  77.965 117.213  0.00  0.00     0.149 HD
ENDBRANCH   6  13
BRANCH   5  18
ATOM     18  N   LIG d   1      -5.596  77.548 119.436  0.00  0.00     0.381 N 
ATOM     19  H   LIG d   1      -6.349  78.145 119.715  0.00  0.00    -0.090 HD
ATOM     20  H   LIG d   1      -4.736  78.060 119.530  0.00  0.00    -0.090 HD
ATOM     21  H   LIG d   1      -5.573  76.738 120.016  0.00  0.00    -0.090 HD
ENDBRANCH   5  18
BRANCH   3  22
ATOM     22  C   LIG d   1      -3.602  75.278 115.721  0.00  0.00     0.382 C 
ATOM     23  O   LIG d   1      -3.471  75.563 114.506  0.00  0.00    -0.241 OA
ATOM     24  O   LIG d   1      -2.703  74.639 116.301  0.00  0.00    -0.241 OA
ENDBRANCH   3  22
TORSDOF 7
ENDMDL
MODEL 3
REMARK VINA RESULT:      -5.9     14.864     17.322
REMARK  7 active torsions:
REMARK  status: ('A' for Active; 'I' for Inactive)
REMARK    1  A    between atoms: C_2  and  C_3 
REMARK    2  A    between atoms: C_3  and  O_6 
REMARK    3  A    between atoms: C_3  and  C_4 
REMARK    4  A    between atoms: C_7  and  O_6 
REMARK    5  A    between atoms: C_9  and  C_10 
REMARK    6  A    between atoms: N_15  and  C_14 
REMARK    7  A    between atoms: N_20  and  C_19 
REMARK       I    between atoms: C_22  and  N_20 
ROOT
ATOM      1  C   LIG d   1      -5.588  92.836 117.168  0.00  0.00     0.161 C 
ATOM      2  C   LIG d   1      -6.526  91.863 116.785  0.00  0.00     0.016 C 
ATOM      3  C   LIG d   1      -6.187  90.515 116.526  0.00  0.00     0.038 C 
ATOM      4  C   LIG d   1      -4.903  90.012 116.780  0.00  0.00     0.028 C 
ATOM      5  C   LIG d   1      -3.808  91.068 116.684  0.00  0.00    -0.047 C 
ATOM      6  C   LIG d   1      -4.202  92.281 117.558  0.00  0.00     0.091 C 
ENDROOT
BRANCH   1   7
ATOM      7  O   LIG d   1      -6.125  93.639 118.238  0.00  0.00    -0.368 OA
BRANCH   7   8
ATOM      8  C   LIG d   1      -7.563  93.820 118.239  0.00  0.00     0.119 C 
BRANCH   8   9
ATOM      9  C   LIG d   1      -7.839  95.325 118.058  0.00  0.00     0.028 C 
ATOM     10  C   LIG d   1      -6.603  96.189 118.356  0.00  0.00     0.006 C 
ENDBRANCH   8   9
BRANCH   8  11
ATOM     11  C   LIG d   1      -8.169  93.457 119.597  0.00  0.00     0.028 C 
ATOM     12  C   LIG d   1      -7.218  92.624 120.472  0.00  0.00     0.006 C 
ENDBRANCH   8  11
ENDBRANCH   7   8
ENDBRANCH   1   7
BRANCH   6  13
ATOM     13  N   LIG d   1      -3.225  93.396 117.455  0.00  0.00    -0.311 N 
ATOM     14  C   LIG d   1      -2.216  93.567 118.307  0.00  0.00     0.210 C 
ATOM     15  C   LIG d   1      -1.338  94.792 118.031  0.00  0.00     0.109 C 
ATOM     16  O   LIG d   1      -1.944  92.803 119.245  0.00  0.00    -0.276 OA
ATOM     17  H   LIG d   1      -3.352  94.046 116.704  0.00  0.00     0.149 HD
ENDBRANCH   6  13
BRANCH   5  18
ATOM     18  N   LIG d   1      -2.542  90.439 117.106  0.00  0.00     0.381 N 
ATOM     19  H   LIG d   1      -2.723  89.522 117.465  0.00  0.00    -0.090 HD
ATOM     20  H   LIG d   1      -2.134  90.990 117.840  0.00  0.00    -0.090 HD
ATOM     21  H   LIG d   1      -1.915  90.383 116.334  0.00  0.00    -0.090 HD
ENDBRANCH   5  18
BRANCH   3  22
ATOM     22  C   LIG d   1      -7.130  89.665 115.968  0.00  0.00     0.382 C 
ATOM     23  O   LIG d   1      -7.742  90.004 114.927  0.00  0.00    -0.241 OA
ATOM     24  O   LIG d   1      -7.407  88.582 116.517  0.00  0.00    -0.241 OA
ENDBRANCH   3  22
TORSDOF 7
ENDMDL
MODEL 4
REMARK VINA RESULT:      -5.7      2.080      5.250
REMARK  7 active torsions:
REMARK  status: ('A' for Active; 'I' for Inactive)
REMARK    1  A    between atoms: C_2  and  C_3 
REMARK    2  A    between atoms: C_3  and  O_6 
REMARK    3  A    between atoms: C_3  and  C_4 
REMARK    4  A    between atoms: C_7  and  O_6 
REMARK    5  A    between atoms: C_9  and  C_10 
REMARK    6  A    between atoms: N_15  and  C_14 
REMARK    7  A    between atoms: N_20  and  C_19 
REMARK       I    between atoms: C_22  and  N_20 
ROOT
ATOM      1  C   LIG d   1      -6.141  74.966 116.667  0.00  0.00     0.161 C 
ATOM      2  C   LIG d   1      -6.705  73.704 116.419  0.00  0.00     0.016 C 
ATOM      3  C   LIG d   1      -8.000  73.333 116.847  0.00  0.00     0.038 C 
ATOM      4  C   LIG d   1      -8.883  74.257 117.425  0.00  0.00     0.028 C 
ATOM      5  C   LIG d   1      -8.177  75.398 118.149  0.00  0.00    -0.047 C 
ATOM      6  C   LIG d   1      -7.131  76.024 117.199  0.00  0.00     0.091 C 
ENDROOT
BRANCH   1   7
ATOM      7  O   LIG d   1      -5.482  75.449 115.480  0.00  0.00    -0.368 OA
BRANCH   7   8
ATOM      8  C   LIG d   1      -4.036  75.531 115.542  0.00  0.00     0.119 C 
BRANCH   8   9
ATOM      9  C   LIG d   1      -3.600  74.984 116.915  0.00  0.00     0.028 C 
ATOM     10  C   LIG d   1      -2.078  75.063 117.122  0.00  0.00     0.006 C 
ENDBRANCH   8   9
BRANCH   8  11
ATOM     11  C   LIG d   1      -3.560  76.986 115.516  0.00  0.00     0.028 C 
ATOM     12  C   LIG d   1      -2.851  77.357 114.203  0.00  0.00     0.006 C 
ENDBRANCH   8  11
ENDBRANCH   7   8
ENDBRANCH   1   7
BRANCH   6  13
ATOM     13  N   LIG d   1      -6.336  77.093 117.857  0.00  0.00    -0.311 N 
ATOM     14  C   LIG d   1      -6.669  78.382 117.820  0.00  0.00     0.210 C 
ATOM     15  C   LIG d   1      -5.701  79.322 118.547  0.00  0.00     0.109 C 
ATOM     16  O   LIG d   1      -7.692  78.833 117.283  0.00  0.00    -0.276 OA
ATOM     17  H   LIG d   1      -5.506  76.812 118.342  0.00  0.00     0.149 HD
ENDBRANCH   6  13
BRANCH   5  18
ATOM     18  N   LIG d   1      -9.210  76.357 118.583  0.00  0.00     0.381 N 
ATOM     19  H   LIG d   1     -10.116  76.016 118.331  0.00  0.00    -0.090 HD
ATOM     20  H   LIG d   1      -9.060  77.232 118.112  0.00  0.00    -0.090 HD
ATOM     21  H   LIG d   1      -9.160  76.490 119.570  0.00  0.00    -0.090 HD
ENDBRANCH   5  18
BRANCH   3  22
ATOM     22  C   LIG d   1      -8.410  72.013 116.734  0.00  0.00     0.382 C 
ATOM     23  O   LIG d   1      -9.574  71.687 117.068  0.00  0.00    -0.241 OA
ATOM     24  O   LIG d   1      -7.615  71.136 116.344  0.00  0.00    -0.241 OA
ENDBRANCH   3  22
TORSDOF 7
ENDMDL
MODEL 5
REMARK VINA RESULT:      -5.5      2.039      5.048
REMARK  7 active torsions:
REMARK  status: ('A' for Active; 'I' for Inactive)
REMARK    1  A    between atoms: C_2  and  C_3 
REMARK    2  A    between atoms: C_3  and  O_6 
REMARK    3  A    between atoms: C_3  and  C_4 
REMARK    4  A    between atoms: C_7  and  O_6 
REMARK    5  A    between atoms: C_9  and  C_10 
REMARK    6  A    between atoms: N_15  and  C_14 
REMARK    7  A    between atoms: N_20  and  C_19 
REMARK       I    between atoms: C_22  and  N_20 
ROOT
ATOM      1  C   LIG d   1      -6.504  76.444 117.173  0.00  0.00     0.161 C 
ATOM      2  C   LIG d   1      -6.827  75.125 116.813  0.00  0.00     0.016 C 
ATOM      3  C   LIG d   1      -8.061  74.511 117.131  0.00  0.00     0.038 C 
ATOM      4  C   LIG d   1      -9.121  75.231 117.701  0.00  0.00     0.028 C 
ATOM      5  C   LIG d   1      -8.665  76.422 118.537  0.00  0.00    -0.047 C 
ATOM      6  C   LIG d   1      -7.691  77.280 117.698  0.00  0.00     0.091 C 
ENDROOT
BRANCH   1   7
ATOM      7  O   LIG d   1      -5.873  77.113 116.063  0.00  0.00    -0.368 OA
BRANCH   7   8
ATOM      8  C   LIG d   1      -4.472  77.441 116.230  0.00  0.00     0.119 C 
BRANCH   8   9
ATOM      9  C   LIG d   1      -3.666  76.522 115.291  0.00  0.00     0.028 C 
ATOM     10  C   LIG d   1      -3.138  75.268 116.007  0.00  0.00     0.006 C 
ENDBRANCH   8   9
BRANCH   8  11
ATOM     11  C   LIG d   1      -3.985  77.103 117.643  0.00  0.00     0.028 C 
ATOM     12  C   LIG d   1      -3.383  78.315 118.371  0.00  0.00     0.006 C 
ENDBRANCH   8  11
ENDBRANCH   7   8
ENDBRANCH   1   7
BRANCH   6  13
ATOM     13  N   LIG d   1      -7.131  78.420 118.470  0.00  0.00    -0.311 N 
ATOM     14  C   LIG d   1      -7.357  79.696 118.161  0.00  0.00     0.210 C 
ATOM     15  C   LIG d   1      -6.668  80.714 119.075  0.00  0.00     0.109 C 
ATOM     16  O   LIG d   1      -8.087  80.080 117.235  0.00  0.00    -0.276 OA
ATOM     17  H   LIG d   1      -6.552  78.198 119.256  0.00  0.00     0.149 HD
ENDBRANCH   6  13
BRANCH   5  18
ATOM     18  N   LIG d   1      -9.871  77.160 118.957  0.00  0.00     0.381 N 
ATOM     19  H   LIG d   1     -10.681  76.756 118.531  0.00  0.00    -0.090 HD
ATOM     20  H   LIG d   1      -9.794  78.112 118.647  0.00  0.00    -0.090 HD
ATOM     21  H   LIG d   1      -9.960  77.132 119.949  0.00  0.00    -0.090 HD
ENDBRANCH   5  18
BRANCH   3  22
ATOM     22  C   LIG d   1      -8.228  73.152 116.912  0.00  0.00     0.382 C 
ATOM     23  O   LIG d   1      -9.303  72.593 117.238  0.00  0.00    -0.241 OA
ATOM     24  O   LIG d   1      -7.302  72.470 116.435  0.00  0.00    -0.241 OA
ENDBRANCH   3  22
TORSDOF 7
ENDMDL
MODEL 6
REMARK VINA RESULT:      -5.3     14.223     16.604
REMARK  7 active torsions:
REMARK  status: ('A' for Active; 'I' for Inactive)
REMARK    1  A    between atoms: C_2  and  C_3 
REMARK    2  A    between atoms: C_3  and  O_6 
REMARK    3  A    between atoms: C_3  and  C_4 
REMARK    4  A    between atoms: C_7  and  O_6 
REMARK    5  A    between atoms: C_9  and  C_10 
REMARK    6  A    between atoms: N_15  and  C_14 
REMARK    7  A    between atoms: N_20  and  C_19 
REMARK       I    between atoms: C_22  and  N_20 
ROOT
ATOM      1  C   LIG d   1      -3.821  91.007 117.504  0.00  0.00     0.161 C 
ATOM      2  C   LIG d   1      -4.530  90.354 116.482  0.00  0.00     0.016 C 
ATOM      3  C   LIG d   1      -5.663  90.908 115.844  0.00  0.00     0.038 C 
ATOM      4  C   LIG d   1      -6.076  92.227 116.082  0.00  0.00     0.028 C 
ATOM      5  C   LIG d   1      -5.698  92.740 117.467  0.00  0.00    -0.047 C 
ATOM      6  C   LIG d   1      -4.190  92.492 117.699  0.00  0.00     0.091 C 
ENDROOT
BRANCH   1   7
ATOM      7  O   LIG d   1      -2.403  90.868 117.282  0.00  0.00    -0.368 OA
BRANCH   7   8
ATOM      8  C   LIG d   1      -1.676  90.095 118.268  0.00  0.00     0.119 C 
BRANCH   8   9
ATOM      9  C   LIG d   1      -0.415  90.896 118.646  0.00  0.00     0.028 C 
ATOM     10  C   LIG d   1       0.026  91.858 117.529  0.00  0.00     0.006 C 
ENDBRANCH   8   9
BRANCH   8  11
ATOM     11  C   LIG d   1      -1.159  88.781 117.676  0.00  0.00     0.028 C 
ATOM     12  C   LIG d   1      -2.099  87.595 117.947  0.00  0.00     0.006 C 
ENDBRANCH   8  11
ENDBRANCH   7   8
ENDBRANCH   1   7
BRANCH   6  13
ATOM     13  N   LIG d   1      -3.753  92.888 119.064  0.00  0.00    -0.311 N 
ATOM     14  C   LIG d   1      -2.806  93.795 119.296  0.00  0.00     0.210 C 
ATOM     15  C   LIG d   1      -2.495  94.041 120.776  0.00  0.00     0.109 C 
ATOM     16  O   LIG d   1      -2.217  94.443 118.418  0.00  0.00    -0.276 OA
ATOM     17  H   LIG d   1      -4.202  92.435 119.836  0.00  0.00     0.149 HD
ENDBRANCH   6  13
BRANCH   5  18
ATOM     18  N   LIG d   1      -6.065  94.168 117.530  0.00  0.00     0.381 N 
ATOM     19  H   LIG d   1      -5.606  94.602 118.305  0.00  0.00    -0.090 HD
ATOM     20  H   LIG d   1      -7.058  94.242 117.669  0.00  0.00    -0.090 HD
ATOM     21  H   LIG d   1      -5.806  94.624 116.683  0.00  0.00    -0.090 HD
ENDBRANCH   5  18
BRANCH   3  22
ATOM     22  C   LIG d   1      -6.420  90.126 114.985  0.00  0.00     0.382 C 
ATOM     23  O   LIG d   1      -7.507  90.561 114.534  0.00  0.00    -0.241 OA
ATOM     24  O   LIG d   1      -6.051  88.973 114.691  0.00  0.00    -0.241 OA
ENDBRANCH   3  22
TORSDOF 7
ENDMDL
MODEL 7
REMARK VINA RESULT:      -5.2      1.966      3.012
REMARK  7 active torsions:
REMARK  status: ('A' for Active; 'I' for Inactive)
REMARK    1  A    between atoms: C_2  and  C_3 
REMARK    2  A    between atoms: C_3  and  O_6 
REMARK    3  A    between atoms: C_3  and  C_4 
REMARK    4  A    between atoms: C_7  and  O_6 
REMARK    5  A    between atoms: C_9  and  C_10 
REMARK    6  A    between atoms: N_15  and  C_14 
REMARK    7  A    between atoms: N_20  and  C_19 
REMARK       I    between atoms: C_22  and  N_20 
ROOT
ATOM      1  C   LIG d   1      -6.325  76.860 116.649  0.00  0.00     0.161 C 
ATOM      2  C   LIG d   1      -5.414  75.791 116.658  0.00  0.00     0.016 C 
ATOM      3  C   LIG d   1      -4.228  75.786 117.429  0.00  0.00     0.038 C 
ATOM      4  C   LIG d   1      -3.948  76.793 118.365  0.00  0.00     0.028 C 
ATOM      5  C   LIG d   1      -4.587  78.135 118.021  0.00  0.00    -0.047 C 
ATOM      6  C   LIG d   1      -6.093  77.918 117.748  0.00  0.00     0.091 C 
ENDROOT
BRANCH   1   7
ATOM      7  O   LIG d   1      -7.673  76.353 116.719  0.00  0.00    -0.368 OA
BRANCH   7   8
ATOM      8  C   LIG d   1      -7.949  75.423 117.795  0.00  0.00     0.119 C 
BRANCH   8   9
ATOM      9  C   LIG d   1      -8.976  74.401 117.271  0.00  0.00     0.028 C 
ATOM     10  C   LIG d   1      -8.513  72.948 117.470  0.00  0.00     0.006 C 
ENDBRANCH   8   9
BRANCH   8  11
ATOM     11  C   LIG d   1      -8.636  76.121 118.972  0.00  0.00     0.028 C 
ATOM     12  C   LIG d   1      -9.792  77.033 118.532  0.00  0.00     0.006 C 
ENDBRANCH   8  11
ENDBRANCH   7   8
ENDBRANCH   1   7
BRANCH   6  13
ATOM     13  N   LIG d   1      -6.777  79.167 117.321  0.00  0.00    -0.311 N 
ATOM     14  C   LIG d   1      -7.443  79.960 118.159  0.00  0.00     0.210 C 
ATOM     15  C   LIG d   1      -8.091  81.187 117.509  0.00  0.00     0.109 C 
ATOM     16  O   LIG d   1      -7.531  79.782 119.383  0.00  0.00    -0.276 OA
ATOM     17  H   LIG d   1      -6.729  79.404 116.350  0.00  0.00     0.149 HD
ENDBRANCH   6  13
BRANCH   5  18
ATOM     18  N   LIG d   1      -4.329  79.053 119.146  0.00  0.00     0.381 N 
ATOM     19  H   LIG d   1      -4.822  79.912 119.002  0.00  0.00    -0.090 HD
ATOM     20  H   LIG d   1      -3.346  79.255 119.182  0.00  0.00    -0.090 HD
ATOM     21  H   LIG d   1      -4.621  78.633 120.002  0.00  0.00    -0.090 HD
ENDBRANCH   5  18
BRANCH   3  22
ATOM     22  C   LIG d   1      -3.288  74.785 117.238  0.00  0.00     0.382 C 
ATOM     23  O   LIG d   1      -2.986  74.020 118.185  0.00  0.00    -0.241 OA
ATOM     24  O   LIG d   1      -2.706  74.666 116.143  0.00  0.00    -0.241 OA
ENDBRANCH   3  22
TORSDOF 7
ENDMDL
MODEL 8
REMARK VINA RESULT:      -4.9     15.618     17.973
REMARK  7 active torsions:
REMARK  status: ('A' for Active; 'I' for Inactive)
REMARK    1  A    between atoms: C_2  and  C_3 
REMARK    2  A    between atoms: C_3  and  O_6 
REMARK    3  A    between atoms: C_3  and  C_4 
REMARK    4  A    between atoms: C_7  and  O_6 
REMARK    5  A    between atoms: C_9  and  C_10 
REMARK    6  A    between atoms: N_15  and  C_14 
REMARK    7  A    between atoms: N_20  and  C_19 
REMARK       I    between atoms: C_22  and  N_20 
ROOT
ATOM      1  C   LIG d   1      -5.440  93.194 118.098  0.00  0.00     0.161 C 
ATOM      2  C   LIG d   1      -4.427  94.054 118.555  0.00  0.00     0.016 C 
ATOM      3  C   LIG d   1      -3.048  93.766 118.431  0.00  0.00     0.038 C 
ATOM      4  C   LIG d   1      -2.584  92.662 117.701  0.00  0.00     0.028 C 
ATOM      5  C   LIG d   1      -3.575  91.504 117.658  0.00  0.00    -0.047 C 
ATOM      6  C   LIG d   1      -4.951  92.038 117.200  0.00  0.00     0.091 C 
ENDROOT
BRANCH   1   7
ATOM      7  O   LIG d   1      -6.460  93.957 117.422  0.00  0.00    -0.368 OA
BRANCH   7   8
ATOM      8  C   LIG d   1      -7.667  94.217 118.179  0.00  0.00     0.119 C 
BRANCH   8   9
ATOM      9  C   LIG d   1      -8.006  95.711 118.011  0.00  0.00     0.028 C 
ATOM     10  C   LIG d   1      -7.112  96.616 118.875  0.00  0.00     0.006 C 
ENDBRANCH   8   9
BRANCH   8  11
ATOM     11  C   LIG d   1      -7.438  94.020 119.680  0.00  0.00     0.028 C 
ATOM     12  C   LIG d   1      -8.627  93.345 120.382  0.00  0.00     0.006 C 
ENDBRANCH   8  11
ENDBRANCH   7   8
ENDBRANCH   1   7
BRANCH   6  13
ATOM     13  N   LIG d   1      -6.000  90.986 117.212  0.00  0.00    -0.311 N 
ATOM     14  C   LIG d   1      -6.332  90.270 116.139  0.00  0.00     0.210 C 
ATOM     15  C   LIG d   1      -7.453  89.250 116.363  0.00  0.00     0.109 C 
ATOM     16  O   LIG d   1      -5.783  90.361 115.030  0.00  0.00    -0.276 OA
ATOM     17  H   LIG d   1      -6.475  90.824 118.078  0.00  0.00     0.149 HD
ENDBRANCH   6  13
BRANCH   5  18
ATOM     18  N   LIG d   1      -3.022  90.478 116.753  0.00  0.00     0.381 N 
ATOM     19  H   LIG d   1      -2.046  90.643 116.611  0.00  0.00    -0.090 HD
ATOM     20  H   LIG d   1      -3.487  90.545 115.865  0.00  0.00    -0.090 HD
ATOM     21  H   LIG d   1      -3.161  89.571 117.141  0.00  0.00    -0.090 HD
ENDBRANCH   5  18
BRANCH   3  22
ATOM     22  C   LIG d   1      -2.119  94.568 119.076  0.00  0.00     0.382 C 
ATOM     23  O   LIG d   1      -2.219  94.777 120.309  0.00  0.00    -0.241 OA
ATOM     24  O   LIG d   1      -1.207  95.121 118.433  0.00  0.00    -0.241 OA
ENDBRANCH   3  22
TORSDOF 7
ENDMDL
MODEL 9
REMARK VINA RESULT:      -4.9      2.175      5.114
REMARK  7 active torsions:
REMARK  status: ('A' for Active; 'I' for Inactive)
REMARK    1  A    between atoms: C_2  and  C_3 
REMARK    2  A    between atoms: C_3  and  O_6 
REMARK    3  A    between atoms: C_3  and  C_4 
REMARK    4  A    between atoms: C_7  and  O_6 
REMARK    5  A    between atoms: C_9  and  C_10 
REMARK    6  A    between atoms: N_15  and  C_14 
REMARK    7  A    between atoms: N_20  and  C_19 
REMARK       I    between atoms: C_22  and  N_20 
ROOT
ATOM      1  C   LIG d   1      -7.612  76.444 117.799  0.00  0.00     0.161 C 
ATOM      2  C   LIG d   1      -8.898  76.958 118.034  0.00  0.00     0.016 C 
ATOM      3  C   LIG d   1      -9.159  78.029 118.920  0.00  0.00     0.038 C 
ATOM      4  C   LIG d   1      -8.125  78.762 119.520  0.00  0.00     0.028 C 
ATOM      5  C   LIG d   1      -6.841  77.959 119.707  0.00  0.00    -0.047 C 
ATOM      6  C   LIG d   1      -6.460  77.303 118.360  0.00  0.00     0.091 C 
ENDROOT
BRANCH   1   7
ATOM      7  O   LIG d   1      -7.427  76.217 116.388  0.00  0.00    -0.368 OA
BRANCH   7   8
ATOM      8  C   LIG d   1      -7.356  74.832 115.969  0.00  0.00     0.119 C 
BRANCH   8   9
ATOM      9  C   LIG d   1      -7.654  73.959 117.204  0.00  0.00     0.028 C 
ATOM     10  C   LIG d   1      -7.952  72.497 116.831  0.00  0.00     0.006 C 
ENDBRANCH   8   9
BRANCH   8  11
ATOM     11  C   LIG d   1      -5.937  74.452 115.537  0.00  0.00     0.028 C 
ATOM     12  C   LIG d   1      -5.223  75.582 114.778  0.00  0.00     0.006 C 
ENDBRANCH   8  11
ENDBRANCH   7   8
ENDBRANCH   1   7
BRANCH   6  13
ATOM     13  N   LIG d   1      -5.262  76.431 118.474  0.00  0.00    -0.311 N 
ATOM     14  C   LIG d   1      -4.031  76.832 118.162  0.00  0.00     0.210 C 
ATOM     15  C   LIG d   1      -2.942  75.768 118.333  0.00  0.00     0.109 C 
ATOM     16  O   LIG d   1      -3.733  77.977 117.791  0.00  0.00    -0.276 OA
ATOM     17  H   LIG d   1      -5.409  75.495 118.797  0.00  0.00     0.149 HD
ENDBRANCH   6  13
BRANCH   5  18
ATOM     18  N   LIG d   1      -5.808  78.882 120.213  0.00  0.00     0.381 N 
ATOM     19  H   LIG d   1      -5.135  78.374 120.751  0.00  0.00    -0.090 HD
ATOM     20  H   LIG d   1      -6.244  79.560 120.813  0.00  0.00    -0.090 HD
ATOM     21  H   LIG d   1      -5.358  79.341 119.452  0.00  0.00    -0.090 HD
ENDBRANCH   5  18
BRANCH   3  22
ATOM     22  C   LIG d   1     -10.468  78.350 119.244  0.00  0.00     0.382 C 
ATOM     23  O   LIG d   1     -10.732  79.466 119.753  0.00  0.00    -0.241 OA
ATOM     24  O   LIG d   1     -11.382  77.521 119.075  0.00  0.00    -0.241 OA
ENDBRANCH   3  22
TORSDOF 7
ENDMDL
