MODEL 1
REMARK VINA RESULT:      -6.0      0.000      0.000
REMARK  7 active torsions:
REMARK  status: ('A' for Active; 'I' for Inactive)
REMARK    1  A    between atoms: C_2  and  C_3 
REMARK    2  A    between atoms: C_3  and  O_6 
REMARK    3  A    between atoms: C_3  and  C_4 
REMARK    4  A    between atoms: C_7  and  O_6 
REMARK    5  A    between atoms: C_9  and  C_10 
REMARK    6  A    between atoms: N_15  and  C_14 
REMARK    7  A    between atoms: N_20  and  C_19 
REMARK       I    between atoms: C_22  and  N_20 
ROOT
ATOM      1  C   LIG d   1      -8.486  74.207 117.469  0.00  0.00     0.161 C 
ATOM      2  C   LIG d   1      -8.106  72.981 116.899  0.00  0.00     0.016 C 
ATOM      3  C   LIG d   1      -8.886  71.805 116.990  0.00  0.00     0.038 C 
ATOM      4  C   LIG d   1     -10.180  71.814 117.532  0.00  0.00     0.028 C 
ATOM      5  C   LIG d   1     -10.394  72.911 118.569  0.00  0.00    -0.047 C 
ATOM      6  C   LIG d   1      -9.945  74.263 117.969  0.00  0.00     0.091 C 
ENDROOT
BRANCH   1   7
ATOM      7  O   LIG d   1      -8.234  75.278 116.538  0.00  0.00    -0.368 OA
BRANCH   7   8
ATOM      8  C   LIG d   1      -6.847  75.503 116.186  0.00  0.00     0.119 C 
BRANCH   8   9
ATOM      9  C   LIG d   1      -6.509  76.964 116.543  0.00  0.00     0.028 C 
ATOM     10  C   LIG d   1      -7.521  77.576 117.526  0.00  0.00     0.006 C 
ENDBRANCH   8   9
BRANCH   8  11
ATOM     11  C   LIG d   1      -6.631  75.395 114.674  0.00  0.00     0.028 C 
ATOM     12  C   LIG d   1      -5.722  74.219 114.284  0.00  0.00     0.006 C 
ENDBRANCH   8  11
ENDBRANCH   7   8
ENDBRANCH   1   7
BRANCH   6  13
ATOM     13  N   LIG d   1     -10.043  75.378 118.946  0.00  0.00    -0.311 N 
ATOM     14  C   LIG d   1     -11.067  76.230 118.987  0.00  0.00     0.210 C 
ATOM     15  C   LIG d   1     -10.960  77.318 120.060  0.00  0.00     0.109 C 
ATOM     16  O   LIG d   1     -12.068  76.168 118.258  0.00  0.00    -0.276 OA
ATOM     17  H   LIG d   1      -9.289  75.483 119.596  0.00  0.00     0.149 HD
ENDBRANCH   6  13
BRANCH   5  18
ATOM     18  N   LIG d   1     -11.820  72.893 118.949  0.00  0.00     0.381 N 
ATOM     19  H   LIG d   1     -11.979  73.535 119.699  0.00  0.00    -0.090 HD
ATOM     20  H   LIG d   1     -12.059  71.970 119.268  0.00  0.00    -0.090 HD
ATOM     21  H   LIG d   1     -12.385  73.138 118.166  0.00  0.00    -0.090 HD
ENDBRANCH   5  18
BRANCH   3  22
ATOM     22  C   LIG d   1      -8.356  70.594 116.571  0.00  0.00     0.382 C 
ATOM     23  O   LIG d   1      -7.387  70.577 115.774  0.00  0.00    -0.241 OA
ATOM     24  O   LIG d   1      -8.862  69.519 116.944  0.00  0.00    -0.241 OA
ENDBRANCH   3  22
TORSDOF 7
ENDMDL
MODEL 2
REMARK VINA RESULT:      -5.9     16.073     18.422
REMARK  7 active torsions:
REMARK  status: ('A' for Active; 'I' for Inactive)
REMARK    1  A    between atoms: C_2  and  C_3 
REMARK    2  A    between atoms: C_3  and  O_6 
REMARK    3  A    between atoms: C_3  and  C_4 
REMARK    4  A    between atoms: C_7  and  O_6 
REMARK    5  A    between atoms: C_9  and  C_10 
REMARK    6  A    between atoms: N_15  and  C_14 
REMARK    7  A    between atoms: N_20  and  C_19 
REMARK       I    between atoms: C_22  and  N_20 
ROOT
ATOM      1  C   LIG d   1      -5.814  91.820 117.472  0.00  0.00     0.161 C 
ATOM      2  C   LIG d   1      -4.851  90.800 117.533  0.00  0.00     0.016 C 
ATOM      3  C   LIG d   1      -3.735  90.834 118.400  0.00  0.00     0.038 C 
ATOM      4  C   LIG d   1      -3.588  91.827 119.380  0.00  0.00     0.028 C 
ATOM      5  C   LIG d   1      -4.266  93.143 119.015  0.00  0.00    -0.047 C 
ATOM      6  C   LIG d   1      -5.730  92.858 118.611  0.00  0.00     0.091 C 
ENDROOT
BRANCH   1   7
ATOM      7  O   LIG d   1      -7.134  91.244 117.415  0.00  0.00    -0.368 OA
BRANCH   7   8
ATOM      8  C   LIG d   1      -7.762  91.215 116.110  0.00  0.00     0.119 C 
BRANCH   8   9
ATOM      9  C   LIG d   1      -7.890  89.738 115.690  0.00  0.00     0.028 C 
ATOM     10  C   LIG d   1      -8.978  88.995 116.483  0.00  0.00     0.006 C 
ENDBRANCH   8   9
BRANCH   8  11
ATOM     11  C   LIG d   1      -6.869  91.863 115.048  0.00  0.00     0.028 C 
ATOM     12  C   LIG d   1      -7.157  91.344 113.630  0.00  0.00     0.006 C 
ENDBRANCH   8  11
ENDBRANCH   7   8
ENDBRANCH   1   7
BRANCH   6  13
ATOM     13  N   LIG d   1      -6.442  94.081 118.159  0.00  0.00    -0.311 N 
ATOM     14  C   LIG d   1      -7.683  94.389 118.533  0.00  0.00     0.210 C 
ATOM     15  C   LIG d   1      -8.236  95.686 117.935  0.00  0.00     0.109 C 
ATOM     16  O   LIG d   1      -8.366  93.727 119.330  0.00  0.00    -0.276 OA
ATOM     17  H   LIG d   1      -5.950  94.691 117.535  0.00  0.00     0.149 HD
ENDBRANCH   6  13
BRANCH   5  18
ATOM     18  N   LIG d   1      -4.152  94.041 120.180  0.00  0.00     0.381 N 
ATOM     19  H   LIG d   1      -3.212  94.372 120.262  0.00  0.00    -0.090 HD
ATOM     20  H   LIG d   1      -4.378  93.524 121.012  0.00  0.00    -0.090 HD
ATOM     21  H   LIG d   1      -4.776  94.811 120.079  0.00  0.00    -0.090 HD
ENDBRANCH   5  18
BRANCH   3  22
ATOM     22  C   LIG d   1      -2.730  89.888 118.265  0.00  0.00     0.382 C 
ATOM     23  O   LIG d   1      -1.549  90.254 118.056  0.00  0.00    -0.241 OA
ATOM     24  O   LIG d   1      -2.998  88.672 118.306  0.00  0.00    -0.241 OA
ENDBRANCH   3  22
TORSDOF 7
ENDMDL
MODEL 3
REMARK VINA RESULT:      -5.8     17.260     19.605
REMARK  7 active torsions:
REMARK  status: ('A' for Active; 'I' for Inactive)
REMARK    1  A    between atoms: C_2  and  C_3 
REMARK    2  A    between atoms: C_3  and  O_6 
REMARK    3  A    between atoms: C_3  and  C_4 
REMARK    4  A    between atoms: C_7  and  O_6 
REMARK    5  A    between atoms: C_9  and  C_10 
REMARK    6  A    between atoms: N_15  and  C_14 
REMARK    7  A    between atoms: N_20  and  C_19 
REMARK       I    between atoms: C_22  and  N_20 
ROOT
ATOM      1  C   LIG d   1      -6.761  93.268 117.624  0.00  0.00     0.161 C 
ATOM      2  C   LIG d   1      -7.090  92.514 116.485  0.00  0.00     0.016 C 
ATOM      3  C   LIG d   1      -6.319  91.422 116.026  0.00  0.00     0.038 C 
ATOM      4  C   LIG d   1      -5.242  90.911 116.766  0.00  0.00     0.028 C 
ATOM      5  C   LIG d   1      -4.571  91.952 117.656  0.00  0.00    -0.047 C 
ATOM      6  C   LIG d   1      -5.653  92.657 118.506  0.00  0.00     0.091 C 
ENDROOT
BRANCH   1   7
ATOM      7  O   LIG d   1      -7.946  93.513 118.407  0.00  0.00    -0.368 OA
BRANCH   7   8
ATOM      8  C   LIG d   1      -8.586  94.798 118.209  0.00  0.00     0.119 C 
BRANCH   8   9
ATOM      9  C   LIG d   1      -7.473  95.857 118.097  0.00  0.00     0.028 C 
ATOM     10  C   LIG d   1      -7.460  96.824 119.293  0.00  0.00     0.006 C 
ENDBRANCH   8   9
BRANCH   8  11
ATOM     11  C   LIG d   1      -9.411  95.204 119.434  0.00  0.00     0.028 C 
ATOM     12  C   LIG d   1      -9.522  94.081 120.476  0.00  0.00     0.006 C 
ENDBRANCH   8  11
ENDBRANCH   7   8
ENDBRANCH   1   7
BRANCH   6  13
ATOM     13  N   LIG d   1      -5.092  93.749 119.345  0.00  0.00    -0.311 N 
ATOM     14  C   LIG d   1      -5.403  93.920 120.629  0.00  0.00     0.210 C 
ATOM     15  C   LIG d   1      -4.728  95.119 121.302  0.00  0.00     0.109 C 
ATOM     16  O   LIG d   1      -6.147  93.174 121.282  0.00  0.00    -0.276 OA
ATOM     17  H   LIG d   1      -4.455  94.382 118.903  0.00  0.00     0.149 HD
ENDBRANCH   6  13
BRANCH   5  18
ATOM     18  N   LIG d   1      -3.558  91.255 118.471  0.00  0.00     0.381 N 
ATOM     19  H   LIG d   1      -4.006  90.752 119.211  0.00  0.00    -0.090 HD
ATOM     20  H   LIG d   1      -2.945  91.938 118.881  0.00  0.00    -0.090 HD
ATOM     21  H   LIG d   1      -3.035  90.627 117.902  0.00  0.00    -0.090 HD
ENDBRANCH   5  18
BRANCH   3  22
ATOM     22  C   LIG d   1      -6.599  90.853 114.793  0.00  0.00     0.382 C 
ATOM     23  O   LIG d   1      -6.710  91.581 113.777  0.00  0.00    -0.241 OA
ATOM     24  O   LIG d   1      -6.785  89.625 114.691  0.00  0.00    -0.241 OA
ENDBRANCH   3  22
TORSDOF 7
ENDMDL
MODEL 4
REMARK VINA RESULT:      -5.7      2.474      4.758
REMARK  7 active torsions:
REMARK  status: ('A' for Active; 'I' for Inactive)
REMARK    1  A    between atoms: C_2  and  C_3 
REMARK    2  A    between atoms: C_3  and  O_6 
REMARK    3  A    between atoms: C_3  and  C_4 
REMARK    4  A    between atoms: C_7  and  O_6 
REMARK    5  A    between atoms: C_9  and  C_10 
REMARK    6  A    between atoms: N_15  and  C_14 
REMARK    7  A    between atoms: N_20  and  C_19 
REMARK       I    between atoms: C_22  and  N_20 
ROOT
ATOM      1  C   LIG d   1      -8.282  74.519 116.854  0.00  0.00     0.161 C 
ATOM      2  C   LIG d   1      -7.355  74.290 115.823  0.00  0.00     0.016 C 
ATOM      3  C   LIG d   1      -5.962  74.186 116.037  0.00  0.00     0.038 C 
ATOM      4  C   LIG d   1      -5.411  74.154 117.327  0.00  0.00     0.028 C 
ATOM      5  C   LIG d   1      -6.254  74.887 118.364  0.00  0.00    -0.047 C 
ATOM      6  C   LIG d   1      -7.710  74.376 118.280  0.00  0.00     0.091 C 
ENDROOT
BRANCH   1   7
ATOM      7  O   LIG d   1      -9.425  73.659 116.684  0.00  0.00    -0.368 OA
BRANCH   7   8
ATOM      8  C   LIG d   1      -9.436  72.447 117.478  0.00  0.00     0.119 C 
BRANCH   8   9
ATOM      9  C   LIG d   1      -9.271  71.258 116.512  0.00  0.00     0.028 C 
ATOM     10  C   LIG d   1      -7.836  70.706 116.500  0.00  0.00     0.006 C 
ENDBRANCH   8   9
BRANCH   8  11
ATOM     11  C   LIG d   1     -10.794  72.236 118.154  0.00  0.00     0.028 C 
ATOM     12  C   LIG d   1     -11.662  73.504 118.156  0.00  0.00     0.006 C 
ENDBRANCH   8  11
ENDBRANCH   7   8
ENDBRANCH   1   7
BRANCH   6  13
ATOM     13  N   LIG d   1      -8.620  75.101 119.204  0.00  0.00    -0.311 N 
ATOM     14  C   LIG d   1      -8.945  74.653 120.416  0.00  0.00     0.210 C 
ATOM     15  C   LIG d   1      -9.914  75.546 121.197  0.00  0.00     0.109 C 
ATOM     16  O   LIG d   1      -8.497  73.617 120.930  0.00  0.00    -0.276 OA
ATOM     17  H   LIG d   1      -9.005  75.967 118.879  0.00  0.00     0.149 HD
ENDBRANCH   6  13
BRANCH   5  18
ATOM     18  N   LIG d   1      -5.636  74.657 119.684  0.00  0.00     0.381 N 
ATOM     19  H   LIG d   1      -5.972  75.336 120.338  0.00  0.00    -0.090 HD
ATOM     20  H   LIG d   1      -4.641  74.766 119.600  0.00  0.00    -0.090 HD
ATOM     21  H   LIG d   1      -5.852  73.740 120.006  0.00  0.00    -0.090 HD
ENDBRANCH   5  18
BRANCH   3  22
ATOM     22  C   LIG d   1      -5.100  74.153 114.952  0.00  0.00     0.382 C 
ATOM     23  O   LIG d   1      -3.864  74.281 115.128  0.00  0.00    -0.241 OA
ATOM     24  O   LIG d   1      -5.546  74.041 113.794  0.00  0.00    -0.241 OA
ENDBRANCH   3  22
TORSDOF 7
ENDMDL
MODEL 5
REMARK VINA RESULT:      -5.7     17.557     19.564
REMARK  7 active torsions:
REMARK  status: ('A' for Active; 'I' for Inactive)
REMARK    1  A    between atoms: C_2  and  C_3 
REMARK    2  A    between atoms: C_3  and  O_6 
REMARK    3  A    between atoms: C_3  and  C_4 
REMARK    4  A    between atoms: C_7  and  O_6 
REMARK    5  A    between atoms: C_9  and  C_10 
REMARK    6  A    between atoms: N_15  and  C_14 
REMARK    7  A    between atoms: N_20  and  C_19 
REMARK       I    between atoms: C_22  and  N_20 
ROOT
ATOM      1  C   LIG d   1      -6.282  93.110 118.142  0.00  0.00     0.161 C 
ATOM      2  C   LIG d   1      -7.044  92.735 117.023  0.00  0.00     0.016 C 
ATOM      3  C   LIG d   1      -6.648  91.725 116.116  0.00  0.00     0.038 C 
ATOM      4  C   LIG d   1      -5.530  90.912 116.353  0.00  0.00     0.028 C 
ATOM      5  C   LIG d   1      -4.458  91.589 117.200  0.00  0.00    -0.047 C 
ATOM      6  C   LIG d   1      -5.115  92.159 118.478  0.00  0.00     0.091 C 
ENDROOT
BRANCH   1   7
ATOM      7  O   LIG d   1      -7.143  93.272 119.287  0.00  0.00    -0.368 OA
BRANCH   7   8
ATOM      8  C   LIG d   1      -7.354  94.632 119.739  0.00  0.00     0.119 C 
BRANCH   8   9
ATOM      9  C   LIG d   1      -8.814  95.005 119.419  0.00  0.00     0.028 C 
ATOM     10  C   LIG d   1      -8.943  95.799 118.108  0.00  0.00     0.006 C 
ENDBRANCH   8   9
BRANCH   8  11
ATOM     11  C   LIG d   1      -6.498  95.622 118.944  0.00  0.00     0.028 C 
ATOM     12  C   LIG d   1      -5.437  96.321 119.809  0.00  0.00     0.006 C 
ENDBRANCH   8  11
ENDBRANCH   7   8
ENDBRANCH   1   7
BRANCH   6  13
ATOM     13  N   LIG d   1      -4.151  92.911 119.323  0.00  0.00    -0.311 N 
ATOM     14  C   LIG d   1      -3.474  92.362 120.330  0.00  0.00     0.210 C 
ATOM     15  C   LIG d   1      -2.547  93.319 121.085  0.00  0.00     0.109 C 
ATOM     16  O   LIG d   1      -3.529  91.164 120.649  0.00  0.00    -0.276 OA
ATOM     17  H   LIG d   1      -4.022  93.882 119.114  0.00  0.00     0.149 HD
ENDBRANCH   6  13
BRANCH   5  18
ATOM     18  N   LIG d   1      -3.415  90.585 117.485  0.00  0.00     0.381 N 
ATOM     19  H   LIG d   1      -3.316  89.969 116.703  0.00  0.00    -0.090 HD
ATOM     20  H   LIG d   1      -3.696  90.041 118.282  0.00  0.00    -0.090 HD
ATOM     21  H   LIG d   1      -2.548  91.038 117.672  0.00  0.00    -0.090 HD
ENDBRANCH   5  18
BRANCH   3  22
ATOM     22  C   LIG d   1      -7.354  91.546 114.936  0.00  0.00     0.382 C 
ATOM     23  O   LIG d   1      -6.774  91.683 113.832  0.00  0.00    -0.241 OA
ATOM     24  O   LIG d   1      -8.574  91.294 114.961  0.00  0.00    -0.241 OA
ENDBRANCH   3  22
TORSDOF 7
ENDMDL
MODEL 6
REMARK VINA RESULT:      -5.4     16.033     18.266
REMARK  7 active torsions:
REMARK  status: ('A' for Active; 'I' for Inactive)
REMARK    1  A    between atoms: C_2  and  C_3 
REMARK    2  A    between atoms: C_3  and  O_6 
REMARK    3  A    between atoms: C_3  and  C_4 
REMARK    4  A    between atoms: C_7  and  O_6 
REMARK    5  A    between atoms: C_9  and  C_10 
REMARK    6  A    between atoms: N_15  and  C_14 
REMARK    7  A    between atoms: N_20  and  C_19 
REMARK       I    between atoms: C_22  and  N_20 
ROOT
ATOM      1  C   LIG d   1      -4.543  91.058 117.827  0.00  0.00     0.161 C 
ATOM      2  C   LIG d   1      -5.233  90.396 116.798  0.00  0.00     0.016 C 
ATOM      3  C   LIG d   1      -6.367  90.935 116.149  0.00  0.00     0.038 C 
ATOM      4  C   LIG d   1      -6.800  92.249 116.383  0.00  0.00     0.028 C 
ATOM      5  C   LIG d   1      -6.441  92.767 117.771  0.00  0.00    -0.047 C 
ATOM      6  C   LIG d   1      -4.933  92.539 118.018  0.00  0.00     0.091 C 
ENDROOT
BRANCH   1   7
ATOM      7  O   LIG d   1      -3.122  90.937 117.618  0.00  0.00    -0.368 OA
BRANCH   7   8
ATOM      8  C   LIG d   1      -2.393  90.179 118.615  0.00  0.00     0.119 C 
BRANCH   8   9
ATOM      9  C   LIG d   1      -0.925  90.643 118.568  0.00  0.00     0.028 C 
ATOM     10  C   LIG d   1      -0.178  90.101 117.338  0.00  0.00     0.006 C 
ENDBRANCH   8   9
BRANCH   8  11
ATOM     11  C   LIG d   1      -2.359  88.688 118.267  0.00  0.00     0.028 C 
ATOM     12  C   LIG d   1      -2.520  87.784 119.499  0.00  0.00     0.006 C 
ENDBRANCH   8  11
ENDBRANCH   7   8
ENDBRANCH   1   7
BRANCH   6  13
ATOM     13  N   LIG d   1      -4.515  92.940 119.387  0.00  0.00    -0.311 N 
ATOM     14  C   LIG d   1      -3.454  93.707 119.634  0.00  0.00     0.210 C 
ATOM     15  C   LIG d   1      -3.189  93.985 121.117  0.00  0.00     0.109 C 
ATOM     16  O   LIG d   1      -2.726  94.209 118.765  0.00  0.00    -0.276 OA
ATOM     17  H   LIG d   1      -5.068  92.603 120.150  0.00  0.00     0.149 HD
ENDBRANCH   6  13
BRANCH   5  18
ATOM     18  N   LIG d   1      -6.828  94.189 117.830  0.00  0.00     0.381 N 
ATOM     19  H   LIG d   1      -7.754  94.304 117.469  0.00  0.00    -0.090 HD
ATOM     20  H   LIG d   1      -6.198  94.722 117.257  0.00  0.00    -0.090 HD
ATOM     21  H   LIG d   1      -6.788  94.515 118.771  0.00  0.00    -0.090 HD
ENDBRANCH   5  18
BRANCH   3  22
ATOM     22  C   LIG d   1      -7.105  90.143 115.283  0.00  0.00     0.382 C 
ATOM     23  O   LIG d   1      -7.782  89.186 115.731  0.00  0.00    -0.241 OA
ATOM     24  O   LIG d   1      -7.069  90.346 114.055  0.00  0.00    -0.241 OA
ENDBRANCH   3  22
TORSDOF 7
ENDMDL
MODEL 7
REMARK VINA RESULT:      -5.2     16.699     19.089
REMARK  7 active torsions:
REMARK  status: ('A' for Active; 'I' for Inactive)
REMARK    1  A    between atoms: C_2  and  C_3 
REMARK    2  A    between atoms: C_3  and  O_6 
REMARK    3  A    between atoms: C_3  and  C_4 
REMARK    4  A    between atoms: C_7  and  O_6 
REMARK    5  A    between atoms: C_9  and  C_10 
REMARK    6  A    between atoms: N_15  and  C_14 
REMARK    7  A    between atoms: N_20  and  C_19 
REMARK       I    between atoms: C_22  and  N_20 
ROOT
ATOM      1  C   LIG d   1      -4.808  92.101 118.095  0.00  0.00     0.161 C 
ATOM      2  C   LIG d   1      -5.094  91.101 117.150  0.00  0.00     0.016 C 
ATOM      3  C   LIG d   1      -6.284  91.068 116.388  0.00  0.00     0.038 C 
ATOM      4  C   LIG d   1      -7.208  92.123 116.410  0.00  0.00     0.028 C 
ATOM      5  C   LIG d   1      -7.205  92.904 117.720  0.00  0.00    -0.047 C 
ATOM      6  C   LIG d   1      -5.754  93.320 118.052  0.00  0.00     0.091 C 
ENDROOT
BRANCH   1   7
ATOM      7  O   LIG d   1      -3.437  92.526 117.957  0.00  0.00    -0.368 OA
BRANCH   7   8
ATOM      8  C   LIG d   1      -2.601  92.367 119.130  0.00  0.00     0.119 C 
BRANCH   8   9
ATOM      9  C   LIG d   1      -1.434  93.366 119.004  0.00  0.00     0.028 C 
ATOM     10  C   LIG d   1      -1.851  94.671 118.305  0.00  0.00     0.006 C 
ENDBRANCH   8   9
BRANCH   8  11
ATOM     11  C   LIG d   1      -1.947  90.983 119.164  0.00  0.00     0.028 C 
ATOM     12  C   LIG d   1      -1.077  90.703 117.928  0.00  0.00     0.006 C 
ENDBRANCH   8  11
ENDBRANCH   7   8
ENDBRANCH   1   7
BRANCH   6  13
ATOM     13  N   LIG d   1      -5.649  94.016 119.361  0.00  0.00    -0.311 N 
ATOM     14  C   LIG d   1      -5.821  95.328 119.509  0.00  0.00     0.210 C 
ATOM     15  C   LIG d   1      -5.649  95.845 120.941  0.00  0.00     0.109 C 
ATOM     16  O   LIG d   1      -6.131  96.109 118.597  0.00  0.00    -0.276 OA
ATOM     17  H   LIG d   1      -5.431  93.454 120.161  0.00  0.00     0.149 HD
ENDBRANCH   6  13
BRANCH   5  18
ATOM     18  N   LIG d   1      -8.113  94.055 117.555  0.00  0.00     0.381 N 
ATOM     19  H   LIG d   1      -8.925  93.775 117.042  0.00  0.00    -0.090 HD
ATOM     20  H   LIG d   1      -7.640  94.770 117.032  0.00  0.00    -0.090 HD
ATOM     21  H   LIG d   1      -8.381  94.408 118.447  0.00  0.00    -0.090 HD
ENDBRANCH   5  18
BRANCH   3  22
ATOM     22  C   LIG d   1      -6.578  89.951 115.622  0.00  0.00     0.382 C 
ATOM     23  O   LIG d   1      -7.718  89.430 115.684  0.00  0.00    -0.241 OA
ATOM     24  O   LIG d   1      -5.705  89.430 114.902  0.00  0.00    -0.241 OA
ENDBRANCH   3  22
TORSDOF 7
ENDMDL
MODEL 8
REMARK VINA RESULT:      -5.2      9.972     11.940
REMARK  7 active torsions:
REMARK  status: ('A' for Active; 'I' for Inactive)
REMARK    1  A    between atoms: C_2  and  C_3 
REMARK    2  A    between atoms: C_3  and  O_6 
REMARK    3  A    between atoms: C_3  and  C_4 
REMARK    4  A    between atoms: C_7  and  O_6 
REMARK    5  A    between atoms: C_9  and  C_10 
REMARK    6  A    between atoms: N_15  and  C_14 
REMARK    7  A    between atoms: N_20  and  C_19 
REMARK       I    between atoms: C_22  and  N_20 
ROOT
ATOM      1  C   LIG d   1     -14.785  65.740 117.209  0.00  0.00     0.161 C 
ATOM      2  C   LIG d   1     -15.342  65.915 115.931  0.00  0.00     0.016 C 
ATOM      3  C   LIG d   1     -16.104  64.923 115.272  0.00  0.00     0.038 C 
ATOM      4  C   LIG d   1     -16.490  63.736 115.914  0.00  0.00     0.028 C 
ATOM      5  C   LIG d   1     -15.529  63.303 117.016  0.00  0.00    -0.047 C 
ATOM      6  C   LIG d   1     -15.288  64.496 117.970  0.00  0.00     0.091 C 
ENDROOT
BRANCH   1   7
ATOM      7  O   LIG d   1     -14.992  66.928 117.998  0.00  0.00    -0.368 OA
BRANCH   7   8
ATOM      8  C   LIG d   1     -16.166  66.933 118.848  0.00  0.00     0.119 C 
BRANCH   8   9
ATOM      9  C   LIG d   1     -17.140  67.986 118.285  0.00  0.00     0.028 C 
ATOM     10  C   LIG d   1     -18.327  67.351 117.542  0.00  0.00     0.006 C 
ENDBRANCH   8   9
BRANCH   8  11
ATOM     11  C   LIG d   1     -15.827  67.408 120.264  0.00  0.00     0.028 C 
ATOM     12  C   LIG d   1     -14.314  67.484 120.521  0.00  0.00     0.006 C 
ENDBRANCH   8  11
ENDBRANCH   7   8
ENDBRANCH   1   7
BRANCH   6  13
ATOM     13  N   LIG d   1     -14.294  64.184 119.029  0.00  0.00    -0.311 N 
ATOM     14  C   LIG d   1     -14.628  63.769 120.249  0.00  0.00     0.210 C 
ATOM     15  C   LIG d   1     -13.448  63.522 121.195  0.00  0.00     0.109 C 
ATOM     16  O   LIG d   1     -15.789  63.551 120.629  0.00  0.00    -0.276 OA
ATOM     17  H   LIG d   1     -13.327  64.303 118.796  0.00  0.00     0.149 HD
ENDBRANCH   6  13
BRANCH   5  18
ATOM     18  N   LIG d   1     -16.122  62.134 117.691  0.00  0.00     0.381 N 
ATOM     19  H   LIG d   1     -16.777  61.686 117.081  0.00  0.00    -0.090 HD
ATOM     20  H   LIG d   1     -16.615  62.446 118.509  0.00  0.00    -0.090 HD
ATOM     21  H   LIG d   1     -15.407  61.491 117.951  0.00  0.00    -0.090 HD
ENDBRANCH   5  18
BRANCH   3  22
ATOM     22  C   LIG d   1     -16.455  65.096 113.942  0.00  0.00     0.382 C 
ATOM     23  O   LIG d   1     -15.925  64.382 113.056  0.00  0.00    -0.241 OA
ATOM     24  O   LIG d   1     -17.261  65.986 113.612  0.00  0.00    -0.241 OA
ENDBRANCH   3  22
TORSDOF 7
ENDMDL
MODEL 9
REMARK VINA RESULT:      -5.2      2.533      6.692
REMARK  7 active torsions:
REMARK  status: ('A' for Active; 'I' for Inactive)
REMARK    1  A    between atoms: C_2  and  C_3 
REMARK    2  A    between atoms: C_3  and  O_6 
REMARK    3  A    between atoms: C_3  and  C_4 
REMARK    4  A    between atoms: C_7  and  O_6 
REMARK    5  A    between atoms: C_9  and  C_10 
REMARK    6  A    between atoms: N_15  and  C_14 
REMARK    7  A    between atoms: N_20  and  C_19 
REMARK       I    between atoms: C_22  and  N_20 
ROOT
ATOM      1  C   LIG d   1      -9.489  75.963 118.605  0.00  0.00     0.161 C 
ATOM      2  C   LIG d   1     -10.075  77.206 118.897  0.00  0.00     0.016 C 
ATOM      3  C   LIG d   1      -9.464  78.445 118.592  0.00  0.00     0.038 C 
ATOM      4  C   LIG d   1      -8.288  78.524 117.832  0.00  0.00     0.028 C 
ATOM      5  C   LIG d   1      -7.403  77.288 117.954  0.00  0.00    -0.047 C 
ATOM      6  C   LIG d   1      -8.258  76.030 117.677  0.00  0.00     0.091 C 
ENDROOT
BRANCH   1   7
ATOM      7  O   LIG d   1     -10.482  75.073 118.057  0.00  0.00    -0.368 OA
BRANCH   7   8
ATOM      8  C   LIG d   1     -10.934  74.008 118.930  0.00  0.00     0.119 C 
BRANCH   8   9
ATOM      9  C   LIG d   1     -10.376  72.684 118.373  0.00  0.00     0.028 C 
ATOM     10  C   LIG d   1     -10.342  72.663 116.835  0.00  0.00     0.006 C 
ENDBRANCH   8   9
BRANCH   8  11
ATOM     11  C   LIG d   1     -12.457  73.858 118.883  0.00  0.00     0.028 C 
ATOM     12  C   LIG d   1     -13.159  75.087 118.283  0.00  0.00     0.006 C 
ENDBRANCH   8  11
ENDBRANCH   7   8
ENDBRANCH   1   7
BRANCH   6  13
ATOM     13  N   LIG d   1      -7.490  74.771 117.858  0.00  0.00    -0.311 N 
ATOM     14  C   LIG d   1      -6.912  74.114 116.853  0.00  0.00     0.210 C 
ATOM     15  C   LIG d   1      -6.186  72.827 117.256  0.00  0.00     0.109 C 
ATOM     16  O   LIG d   1      -6.905  74.492 115.672  0.00  0.00    -0.276 OA
ATOM     17  H   LIG d   1      -7.419  74.410 118.789  0.00  0.00     0.149 HD
ENDBRANCH   6  13
BRANCH   5  18
ATOM     18  N   LIG d   1      -6.284  77.446 117.007  0.00  0.00     0.381 N 
ATOM     19  H   LIG d   1      -6.526  77.041 116.125  0.00  0.00    -0.090 HD
ATOM     20  H   LIG d   1      -5.482  76.959 117.367  0.00  0.00    -0.090 HD
ATOM     21  H   LIG d   1      -6.070  78.412 116.890  0.00  0.00    -0.090 HD
ENDBRANCH   5  18
BRANCH   3  22
ATOM     22  C   LIG d   1     -10.012  79.620 119.083  0.00  0.00     0.382 C 
ATOM     23  O   LIG d   1     -10.259  79.732 120.308  0.00  0.00    -0.241 OA
ATOM     24  O   LIG d   1     -10.302  80.553 118.311  0.00  0.00    -0.241 OA
ENDBRANCH   3  22
TORSDOF 7
ENDMDL
