MODEL 1
REMARK VINA RESULT:      -5.3      0.000      0.000
REMARK  7 active torsions:
REMARK  status: ('A' for Active; 'I' for Inactive)
REMARK    1  A    between atoms: C_2  and  C_3 
REMARK    2  A    between atoms: C_3  and  O_6 
REMARK    3  A    between atoms: C_3  and  C_4 
REMARK    4  A    between atoms: C_7  and  O_6 
REMARK    5  A    between atoms: C_9  and  C_10 
REMARK    6  A    between atoms: N_15  and  C_14 
REMARK    7  A    between atoms: N_20  and  C_19 
REMARK       I    between atoms: C_22  and  N_20 
ROOT
ATOM      1  C   LIG d   1      -6.042  78.286 117.351  0.00  0.00     0.161 C 
ATOM      2  C   LIG d   1      -7.269  78.964 117.256  0.00  0.00     0.016 C 
ATOM      3  C   LIG d   1      -7.519  80.210 117.874  0.00  0.00     0.038 C 
ATOM      4  C   LIG d   1      -6.503  80.941 118.507  0.00  0.00     0.028 C 
ATOM      5  C   LIG d   1      -5.383  80.067 119.061  0.00  0.00    -0.047 C 
ATOM      6  C   LIG d   1      -4.887  79.120 117.945  0.00  0.00     0.091 C 
ENDROOT
BRANCH   1   7
ATOM      7  O   LIG d   1      -5.671  77.764 116.060  0.00  0.00    -0.368 OA
BRANCH   7   8
ATOM      8  C   LIG d   1      -5.718  76.323 115.917  0.00  0.00     0.119 C 
BRANCH   8   9
ATOM      9  C   LIG d   1      -4.582  75.915 114.960  0.00  0.00     0.028 C 
ATOM     10  C   LIG d   1      -3.488  75.094 115.663  0.00  0.00     0.006 C 
ENDBRANCH   8   9
BRANCH   8  11
ATOM     11  C   LIG d   1      -7.010  75.874 115.228  0.00  0.00     0.028 C 
ATOM     12  C   LIG d   1      -8.119  75.503 116.225  0.00  0.00     0.006 C 
ENDBRANCH   8  11
ENDBRANCH   7   8
ENDBRANCH   1   7
BRANCH   6  13
ATOM     13  N   LIG d   1      -3.848  78.172 118.425  0.00  0.00    -0.311 N 
ATOM     14  C   LIG d   1      -2.691  77.972 117.797  0.00  0.00     0.210 C 
ATOM     15  C   LIG d   1      -1.771  76.937 118.451  0.00  0.00     0.109 C 
ATOM     16  O   LIG d   1      -2.325  78.578 116.779  0.00  0.00    -0.276 OA
ATOM     17  H   LIG d   1      -4.050  77.661 119.263  0.00  0.00     0.149 HD
ENDBRANCH   6  13
BRANCH   5  18
ATOM     18  N   LIG d   1      -4.328  80.964 119.570  0.00  0.00     0.381 N 
ATOM     19  H   LIG d   1      -3.465  80.464 119.642  0.00  0.00    -0.090 HD
ATOM     20  H   LIG d   1      -4.586  81.282 120.488  0.00  0.00    -0.090 HD
ATOM     21  H   LIG d   1      -4.219  81.743 118.959  0.00  0.00    -0.090 HD
ENDBRANCH   5  18
BRANCH   3  22
ATOM     22  C   LIG d   1      -8.809  80.720 117.896  0.00  0.00     0.382 C 
ATOM     23  O   LIG d   1      -9.784  79.968 117.655  0.00  0.00    -0.241 OA
ATOM     24  O   LIG d   1      -9.006  81.931 118.109  0.00  0.00    -0.241 OA
ENDBRANCH   3  22
TORSDOF 7
ENDMDL
MODEL 2
REMARK VINA RESULT:      -5.3     11.795     13.823
REMARK  7 active torsions:
REMARK  status: ('A' for Active; 'I' for Inactive)
REMARK    1  A    between atoms: C_2  and  C_3 
REMARK    2  A    between atoms: C_3  and  O_6 
REMARK    3  A    between atoms: C_3  and  C_4 
REMARK    4  A    between atoms: C_7  and  O_6 
REMARK    5  A    between atoms: C_9  and  C_10 
REMARK    6  A    between atoms: N_15  and  C_14 
REMARK    7  A    between atoms: N_20  and  C_19 
REMARK       I    between atoms: C_22  and  N_20 
ROOT
ATOM      1  C   LIG d   1      -3.816  92.069 117.570  0.00  0.00     0.161 C 
ATOM      2  C   LIG d   1      -4.909  92.166 116.693  0.00  0.00     0.016 C 
ATOM      3  C   LIG d   1      -5.303  91.125 115.821  0.00  0.00     0.038 C 
ATOM      4  C   LIG d   1      -4.718  89.851 115.876  0.00  0.00     0.028 C 
ATOM      5  C   LIG d   1      -3.282  89.866 116.391  0.00  0.00    -0.047 C 
ATOM      6  C   LIG d   1      -3.235  90.647 117.724  0.00  0.00     0.091 C 
ENDROOT
BRANCH   1   7
ATOM      7  O   LIG d   1      -4.175  92.605 118.859  0.00  0.00    -0.368 OA
BRANCH   7   8
ATOM      8  C   LIG d   1      -5.519  93.131 118.979  0.00  0.00     0.119 C 
BRANCH   8   9
ATOM      9  C   LIG d   1      -5.402  94.643 119.257  0.00  0.00     0.028 C 
ATOM     10  C   LIG d   1      -6.545  95.448 118.618  0.00  0.00     0.006 C 
ENDBRANCH   8   9
BRANCH   8  11
ATOM     11  C   LIG d   1      -6.239  92.549 120.199  0.00  0.00     0.028 C 
ATOM     12  C   LIG d   1      -5.438  91.433 120.887  0.00  0.00     0.006 C 
ENDBRANCH   8  11
ENDBRANCH   7   8
ENDBRANCH   1   7
BRANCH   6  13
ATOM     13  N   LIG d   1      -1.853  90.781 118.254  0.00  0.00    -0.311 N 
ATOM     14  C   LIG d   1      -1.328  89.949 119.151  0.00  0.00     0.210 C 
ATOM     15  C   LIG d   1       0.106  90.278 119.578  0.00  0.00     0.109 C 
ATOM     16  O   LIG d   1      -1.902  88.949 119.609  0.00  0.00    -0.276 OA
ATOM     17  H   LIG d   1      -1.306  91.547 117.912  0.00  0.00     0.149 HD
ENDBRANCH   6  13
BRANCH   5  18
ATOM     18  N   LIG d   1      -2.844  88.464 116.527  0.00  0.00     0.381 N 
ATOM     19  H   LIG d   1      -3.341  87.889 115.877  0.00  0.00    -0.090 HD
ATOM     20  H   LIG d   1      -3.057  88.145 117.456  0.00  0.00    -0.090 HD
ATOM     21  H   LIG d   1      -1.864  88.395 116.361  0.00  0.00    -0.090 HD
ENDBRANCH   5  18
BRANCH   3  22
ATOM     22  C   LIG d   1      -6.266  91.367 114.853  0.00  0.00     0.382 C 
ATOM     23  O   LIG d   1      -6.410  92.522 114.386  0.00  0.00    -0.241 OA
ATOM     24  O   LIG d   1      -7.022  90.453 114.473  0.00  0.00    -0.241 OA
ENDBRANCH   3  22
TORSDOF 7
ENDMDL
MODEL 3
REMARK VINA RESULT:      -5.0      2.079      4.895
REMARK  7 active torsions:
REMARK  status: ('A' for Active; 'I' for Inactive)
REMARK    1  A    between atoms: C_2  and  C_3 
REMARK    2  A    between atoms: C_3  and  O_6 
REMARK    3  A    between atoms: C_3  and  C_4 
REMARK    4  A    between atoms: C_7  and  O_6 
REMARK    5  A    between atoms: C_9  and  C_10 
REMARK    6  A    between atoms: N_15  and  C_14 
REMARK    7  A    between atoms: N_20  and  C_19 
REMARK       I    between atoms: C_22  and  N_20 
ROOT
ATOM      1  C   LIG d   1      -6.206  79.092 117.177  0.00  0.00     0.161 C 
ATOM      2  C   LIG d   1      -5.121  78.430 117.775  0.00  0.00     0.016 C 
ATOM      3  C   LIG d   1      -4.723  78.642 119.115  0.00  0.00     0.038 C 
ATOM      4  C   LIG d   1      -5.481  79.424 119.999  0.00  0.00     0.028 C 
ATOM      5  C   LIG d   1      -6.296  80.508 119.302  0.00  0.00    -0.047 C 
ATOM      6  C   LIG d   1      -7.113  79.865 118.158  0.00  0.00     0.091 C 
ENDROOT
BRANCH   1   7
ATOM      7  O   LIG d   1      -6.985  78.156 116.406  0.00  0.00    -0.368 OA
BRANCH   7   8
ATOM      8  C   LIG d   1      -7.572  77.055 117.144  0.00  0.00     0.119 C 
BRANCH   8   9
ATOM      9  C   LIG d   1      -7.603  75.833 116.206  0.00  0.00     0.028 C 
ATOM     10  C   LIG d   1      -6.571  75.938 115.071  0.00  0.00     0.006 C 
ENDBRANCH   8   9
BRANCH   8  11
ATOM     11  C   LIG d   1      -9.036  77.336 117.493  0.00  0.00     0.028 C 
ATOM     12  C   LIG d   1      -9.363  77.050 118.968  0.00  0.00     0.006 C 
ENDBRANCH   8  11
ENDBRANCH   7   8
ENDBRANCH   1   7
BRANCH   6  13
ATOM     13  N   LIG d   1      -7.874  80.869 117.370  0.00  0.00    -0.311 N 
ATOM     14  C   LIG d   1      -9.162  81.139 117.576  0.00  0.00     0.210 C 
ATOM     15  C   LIG d   1      -9.759  82.194 116.640  0.00  0.00     0.109 C 
ATOM     16  O   LIG d   1      -9.858  80.628 118.466  0.00  0.00    -0.276 OA
ATOM     17  H   LIG d   1      -7.378  81.354 116.648  0.00  0.00     0.149 HD
ENDBRANCH   6  13
BRANCH   5  18
ATOM     18  N   LIG d   1      -7.142  81.155 120.322  0.00  0.00     0.381 N 
ATOM     19  H   LIG d   1      -7.791  80.492 120.695  0.00  0.00    -0.090 HD
ATOM     20  H   LIG d   1      -7.663  81.898 119.890  0.00  0.00    -0.090 HD
ATOM     21  H   LIG d   1      -6.573  81.521 121.054  0.00  0.00    -0.090 HD
ENDBRANCH   5  18
BRANCH   3  22
ATOM     22  C   LIG d   1      -3.531  78.099 119.572  0.00  0.00     0.382 C 
ATOM     23  O   LIG d   1      -2.956  78.599 120.569  0.00  0.00    -0.241 OA
ATOM     24  O   LIG d   1      -3.001  77.145 118.973  0.00  0.00    -0.241 OA
ENDBRANCH   3  22
TORSDOF 7
ENDMDL
MODEL 4
REMARK VINA RESULT:      -5.0      3.116      5.827
REMARK  7 active torsions:
REMARK  status: ('A' for Active; 'I' for Inactive)
REMARK    1  A    between atoms: C_2  and  C_3 
REMARK    2  A    between atoms: C_3  and  O_6 
REMARK    3  A    between atoms: C_3  and  C_4 
REMARK    4  A    between atoms: C_7  and  O_6 
REMARK    5  A    between atoms: C_9  and  C_10 
REMARK    6  A    between atoms: N_15  and  C_14 
REMARK    7  A    between atoms: N_20  and  C_19 
REMARK       I    between atoms: C_22  and  N_20 
ROOT
ATOM      1  C   LIG d   1      -2.083  77.825 116.602  0.00  0.00     0.161 C 
ATOM      2  C   LIG d   1      -3.356  77.497 116.105  0.00  0.00     0.016 C 
ATOM      3  C   LIG d   1      -3.701  76.208 115.639  0.00  0.00     0.038 C 
ATOM      4  C   LIG d   1      -2.836  75.113 115.779  0.00  0.00     0.028 C 
ATOM      5  C   LIG d   1      -1.363  75.504 115.810  0.00  0.00    -0.047 C 
ATOM      6  C   LIG d   1      -1.161  76.616 116.865  0.00  0.00     0.091 C 
ENDROOT
BRANCH   1   7
ATOM      7  O   LIG d   1      -2.215  78.624 117.794  0.00  0.00    -0.368 OA
BRANCH   7   8
ATOM      8  C   LIG d   1      -3.298  78.264 118.686  0.00  0.00     0.119 C 
BRANCH   8   9
ATOM      9  C   LIG d   1      -4.135  79.535 118.934  0.00  0.00     0.028 C 
ATOM     10  C   LIG d   1      -5.587  79.385 118.450  0.00  0.00     0.006 C 
ENDBRANCH   8   9
BRANCH   8  11
ATOM     11  C   LIG d   1      -2.772  77.850 120.063  0.00  0.00     0.028 C 
ATOM     12  C   LIG d   1      -2.451  76.350 120.152  0.00  0.00     0.006 C 
ENDBRANCH   8  11
ENDBRANCH   7   8
ENDBRANCH   1   7
BRANCH   6  13
ATOM     13  N   LIG d   1       0.237  77.116 116.902  0.00  0.00    -0.311 N 
ATOM     14  C   LIG d   1       1.160  76.654 117.743  0.00  0.00     0.210 C 
ATOM     15  C   LIG d   1       2.534  77.322 117.628  0.00  0.00     0.109 C 
ATOM     16  O   LIG d   1       0.980  75.732 118.553  0.00  0.00    -0.276 OA
ATOM     17  H   LIG d   1       0.479  77.843 116.257  0.00  0.00     0.149 HD
ENDBRANCH   6  13
BRANCH   5  18
ATOM     18  N   LIG d   1      -0.583  74.286 116.098  0.00  0.00     0.381 N 
ATOM     19  H   LIG d   1      -1.112  73.677 116.690  0.00  0.00    -0.090 HD
ATOM     20  H   LIG d   1       0.258  74.545 116.582  0.00  0.00    -0.090 HD
ATOM     21  H   LIG d   1      -0.356  73.818 115.248  0.00  0.00    -0.090 HD
ENDBRANCH   5  18
BRANCH   3  22
ATOM     22  C   LIG d   1      -4.910  76.014 114.988  0.00  0.00     0.382 C 
ATOM     23  O   LIG d   1      -5.014  75.122 114.111  0.00  0.00    -0.241 OA
ATOM     24  O   LIG d   1      -5.886  76.748 115.235  0.00  0.00    -0.241 OA
ENDBRANCH   3  22
TORSDOF 7
ENDMDL
MODEL 5
REMARK VINA RESULT:      -5.0     11.629     13.764
REMARK  7 active torsions:
REMARK  status: ('A' for Active; 'I' for Inactive)
REMARK    1  A    between atoms: C_2  and  C_3 
REMARK    2  A    between atoms: C_3  and  O_6 
REMARK    3  A    between atoms: C_3  and  C_4 
REMARK    4  A    between atoms: C_7  and  O_6 
REMARK    5  A    between atoms: C_9  and  C_10 
REMARK    6  A    between atoms: N_15  and  C_14 
REMARK    7  A    between atoms: N_20  and  C_19 
REMARK       I    between atoms: C_22  and  N_20 
ROOT
ATOM      1  C   LIG d   1      -2.206  90.754 117.687  0.00  0.00     0.161 C 
ATOM      2  C   LIG d   1      -3.137  90.038 116.915  0.00  0.00     0.016 C 
ATOM      3  C   LIG d   1      -4.402  90.551 116.550  0.00  0.00     0.038 C 
ATOM      4  C   LIG d   1      -4.765  91.881 116.805  0.00  0.00     0.028 C 
ATOM      5  C   LIG d   1      -4.062  92.479 118.019  0.00  0.00    -0.047 C 
ATOM      6  C   LIG d   1      -2.540  92.248 117.880  0.00  0.00     0.091 C 
ENDROOT
BRANCH   1   7
ATOM      7  O   LIG d   1      -0.887  90.603 117.125  0.00  0.00    -0.368 OA
BRANCH   7   8
ATOM      8  C   LIG d   1       0.023  89.744 117.856  0.00  0.00     0.119 C 
BRANCH   8   9
ATOM      9  C   LIG d   1       1.145  90.635 118.423  0.00  0.00     0.028 C 
ATOM     10  C   LIG d   1       1.514  91.789 117.476  0.00  0.00     0.006 C 
ENDBRANCH   8   9
BRANCH   8  11
ATOM     11  C   LIG d   1       0.724  88.753 116.922  0.00  0.00     0.028 C 
ATOM     12  C   LIG d   1      -0.049  87.435 116.764  0.00  0.00     0.006 C 
ENDBRANCH   8  11
ENDBRANCH   7   8
ENDBRANCH   1   7
BRANCH   6  13
ATOM     13  N   LIG d   1      -1.783  92.727 119.067  0.00  0.00    -0.311 N 
ATOM     14  C   LIG d   1      -1.154  93.901 119.110  0.00  0.00     0.210 C 
ATOM     15  C   LIG d   1      -0.418  94.192 120.421  0.00  0.00     0.109 C 
ATOM     16  O   LIG d   1      -1.164  94.742 118.199  0.00  0.00    -0.276 OA
ATOM     17  H   LIG d   1      -1.750  92.121 119.862  0.00  0.00     0.149 HD
ENDBRANCH   6  13
BRANCH   5  18
ATOM     18  N   LIG d   1      -4.426  93.906 118.088  0.00  0.00     0.381 N 
ATOM     19  H   LIG d   1      -5.303  94.010 118.557  0.00  0.00    -0.090 HD
ATOM     20  H   LIG d   1      -4.525  94.262 117.153  0.00  0.00    -0.090 HD
ATOM     21  H   LIG d   1      -3.720  94.416 118.571  0.00  0.00    -0.090 HD
ENDBRANCH   5  18
BRANCH   3  22
ATOM     22  C   LIG d   1      -5.336  89.716 115.955  0.00  0.00     0.382 C 
ATOM     23  O   LIG d   1      -6.358  89.363 116.593  0.00  0.00    -0.241 OA
ATOM     24  O   LIG d   1      -5.149  89.275 114.805  0.00  0.00    -0.241 OA
ENDBRANCH   3  22
TORSDOF 7
ENDMDL
MODEL 6
REMARK VINA RESULT:      -4.9     10.754     12.818
REMARK  7 active torsions:
REMARK  status: ('A' for Active; 'I' for Inactive)
REMARK    1  A    between atoms: C_2  and  C_3 
REMARK    2  A    between atoms: C_3  and  O_6 
REMARK    3  A    between atoms: C_3  and  C_4 
REMARK    4  A    between atoms: C_7  and  O_6 
REMARK    5  A    between atoms: C_9  and  C_10 
REMARK    6  A    between atoms: N_15  and  C_14 
REMARK    7  A    between atoms: N_20  and  C_19 
REMARK       I    between atoms: C_22  and  N_20 
ROOT
ATOM      1  C   LIG d   1      -2.962  90.305 117.530  0.00  0.00     0.161 C 
ATOM      2  C   LIG d   1      -4.012  89.816 116.735  0.00  0.00     0.016 C 
ATOM      3  C   LIG d   1      -5.144  90.587 116.382  0.00  0.00     0.038 C 
ATOM      4  C   LIG d   1      -5.230  91.955 116.677  0.00  0.00     0.028 C 
ATOM      5  C   LIG d   1      -4.430  92.361 117.910  0.00  0.00    -0.047 C 
ATOM      6  C   LIG d   1      -2.986  91.829 117.768  0.00  0.00     0.091 C 
ENDROOT
BRANCH   1   7
ATOM      7  O   LIG d   1      -1.696  89.905 116.967  0.00  0.00    -0.368 OA
BRANCH   7   8
ATOM      8  C   LIG d   1      -0.951  88.913 117.714  0.00  0.00     0.119 C 
BRANCH   8   9
ATOM      9  C   LIG d   1      -0.986  87.602 116.906  0.00  0.00     0.028 C 
ATOM     10  C   LIG d   1       0.367  87.280 116.249  0.00  0.00     0.006 C 
ENDBRANCH   8   9
BRANCH   8  11
ATOM     11  C   LIG d   1      -1.636  88.587 119.045  0.00  0.00     0.028 C 
ATOM     12  C   LIG d   1      -2.039  87.109 119.161  0.00  0.00     0.006 C 
ENDBRANCH   8  11
ENDBRANCH   7   8
ENDBRANCH   1   7
BRANCH   6  13
ATOM     13  N   LIG d   1      -2.157  92.110 118.969  0.00  0.00    -0.311 N 
ATOM     14  C   LIG d   1      -1.351  93.165 119.074  0.00  0.00     0.210 C 
ATOM     15  C   LIG d   1      -0.571  93.255 120.390  0.00  0.00     0.109 C 
ATOM     16  O   LIG d   1      -1.231  94.051 118.215  0.00  0.00    -0.276 OA
ATOM     17  H   LIG d   1      -2.217  91.458 119.727  0.00  0.00     0.149 HD
ENDBRANCH   6  13
BRANCH   5  18
ATOM     18  N   LIG d   1      -4.496  93.831 118.021  0.00  0.00     0.381 N 
ATOM     19  H   LIG d   1      -5.298  94.171 117.528  0.00  0.00    -0.090 HD
ATOM     20  H   LIG d   1      -3.675  94.226 117.598  0.00  0.00    -0.090 HD
ATOM     21  H   LIG d   1      -4.548  94.098 118.979  0.00  0.00    -0.090 HD
ENDBRANCH   5  18
BRANCH   3  22
ATOM     22  C   LIG d   1      -6.223  89.977 115.761  0.00  0.00     0.382 C 
ATOM     23  O   LIG d   1      -6.974  89.214 116.415  0.00  0.00    -0.241 OA
ATOM     24  O   LIG d   1      -6.430  90.146 114.544  0.00  0.00    -0.241 OA
ENDBRANCH   3  22
TORSDOF 7
ENDMDL
MODEL 7
REMARK VINA RESULT:      -4.8      3.251      6.812
REMARK  7 active torsions:
REMARK  status: ('A' for Active; 'I' for Inactive)
REMARK    1  A    between atoms: C_2  and  C_3 
REMARK    2  A    between atoms: C_3  and  O_6 
REMARK    3  A    between atoms: C_3  and  C_4 
REMARK    4  A    between atoms: C_7  and  O_6 
REMARK    5  A    between atoms: C_9  and  C_10 
REMARK    6  A    between atoms: N_15  and  C_14 
REMARK    7  A    between atoms: N_20  and  C_19 
REMARK       I    between atoms: C_22  and  N_20 
ROOT
ATOM      1  C   LIG d   1      -2.538  76.905 117.749  0.00  0.00     0.161 C 
ATOM      2  C   LIG d   1      -1.430  77.149 118.578  0.00  0.00     0.016 C 
ATOM      3  C   LIG d   1      -0.178  76.512 118.411  0.00  0.00     0.038 C 
ATOM      4  C   LIG d   1       0.096  75.695 117.305  0.00  0.00     0.028 C 
ATOM      5  C   LIG d   1      -1.145  75.024 116.724  0.00  0.00    -0.047 C 
ATOM      6  C   LIG d   1      -2.224  76.101 116.470  0.00  0.00     0.091 C 
ENDROOT
BRANCH   1   7
ATOM      7  O   LIG d   1      -3.180  78.151 117.413  0.00  0.00    -0.368 OA
BRANCH   7   8
ATOM      8  C   LIG d   1      -4.431  78.427 118.089  0.00  0.00     0.119 C 
BRANCH   8   9
ATOM      9  C   LIG d   1      -5.472  78.783 117.011  0.00  0.00     0.028 C 
ATOM     10  C   LIG d   1      -6.661  77.808 116.997  0.00  0.00     0.006 C 
ENDBRANCH   8   9
BRANCH   8  11
ATOM     11  C   LIG d   1      -4.323  79.671 118.976  0.00  0.00     0.028 C 
ATOM     12  C   LIG d   1      -4.343  79.337 120.476  0.00  0.00     0.006 C 
ENDBRANCH   8  11
ENDBRANCH   7   8
ENDBRANCH   1   7
BRANCH   6  13
ATOM     13  N   LIG d   1      -3.501  75.519 115.981  0.00  0.00    -0.311 N 
ATOM     14  C   LIG d   1      -4.108  75.918 114.864  0.00  0.00     0.210 C 
ATOM     15  C   LIG d   1      -5.425  75.200 114.552  0.00  0.00     0.109 C 
ATOM     16  O   LIG d   1      -3.664  76.775 114.085  0.00  0.00    -0.276 OA
ATOM     17  H   LIG d   1      -3.915  74.796 116.535  0.00  0.00     0.149 HD
ENDBRANCH   6  13
BRANCH   5  18
ATOM     18  N   LIG d   1      -0.735  74.315 115.497  0.00  0.00     0.381 N 
ATOM     19  H   LIG d   1       0.197  73.967 115.602  0.00  0.00    -0.090 HD
ATOM     20  H   LIG d   1      -0.745  74.963 114.729  0.00  0.00    -0.090 HD
ATOM     21  H   LIG d   1      -1.361  73.562 115.314  0.00  0.00    -0.090 HD
ENDBRANCH   5  18
BRANCH   3  22
ATOM     22  C   LIG d   1       0.802  76.659 119.381  0.00  0.00     0.382 C 
ATOM     23  O   LIG d   1       1.991  76.875 119.043  0.00  0.00    -0.241 OA
ATOM     24  O   LIG d   1       0.520  76.534 120.588  0.00  0.00    -0.241 OA
ENDBRANCH   3  22
TORSDOF 7
ENDMDL
MODEL 8
REMARK VINA RESULT:      -4.7     14.767     17.174
REMARK  7 active torsions:
REMARK  status: ('A' for Active; 'I' for Inactive)
REMARK    1  A    between atoms: C_2  and  C_3 
REMARK    2  A    between atoms: C_3  and  O_6 
REMARK    3  A    between atoms: C_3  and  C_4 
REMARK    4  A    between atoms: C_7  and  O_6 
REMARK    5  A    between atoms: C_9  and  C_10 
REMARK    6  A    between atoms: N_15  and  C_14 
REMARK    7  A    between atoms: N_20  and  C_19 
REMARK       I    between atoms: C_22  and  N_20 
ROOT
ATOM      1  C   LIG d   1     -16.616  65.595 117.076  0.00  0.00     0.161 C 
ATOM      2  C   LIG d   1     -16.033  66.034 115.875  0.00  0.00     0.016 C 
ATOM      3  C   LIG d   1     -15.911  67.397 115.522  0.00  0.00     0.038 C 
ATOM      4  C   LIG d   1     -16.229  68.427 116.420  0.00  0.00     0.028 C 
ATOM      5  C   LIG d   1     -17.288  68.033 117.443  0.00  0.00    -0.047 C 
ATOM      6  C   LIG d   1     -16.867  66.707 118.116  0.00  0.00     0.091 C 
ENDROOT
BRANCH   1   7
ATOM      7  O   LIG d   1     -15.817  64.542 117.650  0.00  0.00    -0.368 OA
BRANCH   7   8
ATOM      8  C   LIG d   1     -16.172  63.191 117.267  0.00  0.00     0.119 C 
BRANCH   8   9
ATOM      9  C   LIG d   1     -17.709  63.088 117.304  0.00  0.00     0.028 C 
ATOM     10  C   LIG d   1     -18.222  62.440 118.601  0.00  0.00     0.006 C 
ENDBRANCH   8   9
BRANCH   8  11
ATOM     11  C   LIG d   1     -15.672  62.171 118.293  0.00  0.00     0.028 C 
ATOM     12  C   LIG d   1     -14.523  62.711 119.159  0.00  0.00     0.006 C 
ENDBRANCH   8  11
ENDBRANCH   7   8
ENDBRANCH   1   7
BRANCH   6  13
ATOM     13  N   LIG d   1     -17.890  66.206 119.071  0.00  0.00    -0.311 N 
ATOM     14  C   LIG d   1     -17.593  65.722 120.276  0.00  0.00     0.210 C 
ATOM     15  C   LIG d   1     -18.795  65.240 121.094  0.00  0.00     0.109 C 
ATOM     16  O   LIG d   1     -16.451  65.675 120.758  0.00  0.00    -0.276 OA
ATOM     17  H   LIG d   1     -18.845  66.236 118.774  0.00  0.00     0.149 HD
ENDBRANCH   6  13
BRANCH   5  18
ATOM     18  N   LIG d   1     -17.423  69.149 118.398  0.00  0.00     0.381 N 
ATOM     19  H   LIG d   1     -17.889  68.833 119.225  0.00  0.00    -0.090 HD
ATOM     20  H   LIG d   1     -17.981  69.871 117.978  0.00  0.00    -0.090 HD
ATOM     21  H   LIG d   1     -16.523  69.508 118.632  0.00  0.00    -0.090 HD
ENDBRANCH   5  18
BRANCH   3  22
ATOM     22  C   LIG d   1     -15.503  67.742 114.242  0.00  0.00     0.382 C 
ATOM     23  O   LIG d   1     -15.451  66.868 113.344  0.00  0.00    -0.241 OA
ATOM     24  O   LIG d   1     -15.145  68.907 113.985  0.00  0.00    -0.241 OA
ENDBRANCH   3  22
TORSDOF 7
ENDMDL
MODEL 9
REMARK VINA RESULT:      -4.7     16.125     19.030
REMARK  7 active torsions:
REMARK  status: ('A' for Active; 'I' for Inactive)
REMARK    1  A    between atoms: C_2  and  C_3 
REMARK    2  A    between atoms: C_3  and  O_6 
REMARK    3  A    between atoms: C_3  and  C_4 
REMARK    4  A    between atoms: C_7  and  O_6 
REMARK    5  A    between atoms: C_9  and  C_10 
REMARK    6  A    between atoms: N_15  and  C_14 
REMARK    7  A    between atoms: N_20  and  C_19 
REMARK       I    between atoms: C_22  and  N_20 
ROOT
ATOM      1  C   LIG d   1     -16.978  63.738 116.700  0.00  0.00     0.161 C 
ATOM      2  C   LIG d   1     -17.484  62.452 116.451  0.00  0.00     0.016 C 
ATOM      3  C   LIG d   1     -18.164  62.100 115.262  0.00  0.00     0.038 C 
ATOM      4  C   LIG d   1     -18.252  62.977 114.171  0.00  0.00     0.028 C 
ATOM      5  C   LIG d   1     -18.198  64.448 114.571  0.00  0.00    -0.047 C 
ATOM      6  C   LIG d   1     -16.967  64.677 115.476  0.00  0.00     0.091 C 
ENDROOT
BRANCH   1   7
ATOM      7  O   LIG d   1     -15.657  63.642 117.270  0.00  0.00    -0.368 OA
BRANCH   7   8
ATOM      8  C   LIG d   1     -15.595  63.407 118.698  0.00  0.00     0.119 C 
BRANCH   8   9
ATOM      9  C   LIG d   1     -15.072  64.698 119.357  0.00  0.00     0.028 C 
ATOM     10  C   LIG d   1     -16.197  65.705 119.648  0.00  0.00     0.006 C 
ENDBRANCH   8   9
BRANCH   8  11
ATOM     11  C   LIG d   1     -14.561  62.330 119.041  0.00  0.00     0.028 C 
ATOM     12  C   LIG d   1     -13.370  62.880 119.842  0.00  0.00     0.006 C 
ENDBRANCH   8  11
ENDBRANCH   7   8
ENDBRANCH   1   7
BRANCH   6  13
ATOM     13  N   LIG d   1     -16.886  66.073 115.981  0.00  0.00    -0.311 N 
ATOM     14  C   LIG d   1     -16.124  67.012 115.422  0.00  0.00     0.210 C 
ATOM     15  C   LIG d   1     -16.172  68.379 116.112  0.00  0.00     0.109 C 
ATOM     16  O   LIG d   1     -15.438  66.851 114.402  0.00  0.00    -0.276 OA
ATOM     17  H   LIG d   1     -17.435  66.299 116.787  0.00  0.00     0.149 HD
ENDBRANCH   6  13
BRANCH   5  18
ATOM     18  N   LIG d   1     -18.161  65.246 113.331  0.00  0.00     0.381 N 
ATOM     19  H   LIG d   1     -17.352  65.835 113.331  0.00  0.00    -0.090 HD
ATOM     20  H   LIG d   1     -18.977  65.831 113.295  0.00  0.00    -0.090 HD
ATOM     21  H   LIG d   1     -18.141  64.643 112.538  0.00  0.00    -0.090 HD
ENDBRANCH   5  18
BRANCH   3  22
ATOM     22  C   LIG d   1     -18.800  60.871 115.172  0.00  0.00     0.382 C 
ATOM     23  O   LIG d   1     -19.186  60.287 116.214  0.00  0.00    -0.241 OA
ATOM     24  O   LIG d   1     -18.953  60.318 114.067  0.00  0.00    -0.241 OA
ENDBRANCH   3  22
TORSDOF 7
ENDMDL
