MODEL 1
REMARK VINA RESULT:      -6.1      0.000      0.000
REMARK  7 active torsions:
REMARK  status: ('A' for Active; 'I' for Inactive)
REMARK    1  A    between atoms: C_2  and  C_3 
REMARK    2  A    between atoms: C_3  and  O_6 
REMARK    3  A    between atoms: C_3  and  C_4 
REMARK    4  A    between atoms: C_7  and  O_6 
REMARK    5  A    between atoms: C_9  and  C_10 
REMARK    6  A    between atoms: N_15  and  C_14 
REMARK    7  A    between atoms: N_20  and  C_19 
REMARK       I    between atoms: C_22  and  N_20 
ROOT
ATOM      1  C   LIG d   1      -7.311  76.821 117.633  0.00  0.00     0.161 C 
ATOM      2  C   LIG d   1      -8.660  77.036 117.961  0.00  0.00     0.016 C 
ATOM      3  C   LIG d   1      -9.159  78.272 118.430  0.00  0.00     0.038 C 
ATOM      4  C   LIG d   1      -8.366  79.429 118.459  0.00  0.00     0.028 C 
ATOM      5  C   LIG d   1      -6.877  79.139 118.616  0.00  0.00    -0.047 C 
ATOM      6  C   LIG d   1      -6.453  78.101 117.552  0.00  0.00     0.091 C 
ENDROOT
BRANCH   1   7
ATOM      7  O   LIG d   1      -7.220  76.079 116.400  0.00  0.00    -0.368 OA
BRANCH   7   8
ATOM      8  C   LIG d   1      -6.610  74.768 116.489  0.00  0.00     0.119 C 
BRANCH   8   9
ATOM      9  C   LIG d   1      -5.978  74.457 115.118  0.00  0.00     0.028 C 
ATOM     10  C   LIG d   1      -5.801  75.718 114.255  0.00  0.00     0.006 C 
ENDBRANCH   8   9
BRANCH   8  11
ATOM     11  C   LIG d   1      -7.662  73.677 116.708  0.00  0.00     0.028 C 
ATOM     12  C   LIG d   1      -7.318  72.365 115.985  0.00  0.00     0.006 C 
ENDBRANCH   8  11
ENDBRANCH   7   8
ENDBRANCH   1   7
BRANCH   6  13
ATOM     13  N   LIG d   1      -5.029  77.698 117.689  0.00  0.00    -0.311 N 
ATOM     14  C   LIG d   1      -4.108  77.932 116.757  0.00  0.00     0.210 C 
ATOM     15  C   LIG d   1      -2.705  77.415 117.090  0.00  0.00     0.109 C 
ATOM     16  O   LIG d   1      -4.312  78.547 115.699  0.00  0.00    -0.276 OA
ATOM     17  H   LIG d   1      -4.769  77.221 118.531  0.00  0.00     0.149 HD
ENDBRANCH   6  13
BRANCH   5  18
ATOM     18  N   LIG d   1      -6.158  80.421 118.493  0.00  0.00     0.381 N 
ATOM     19  H   LIG d   1      -5.484  80.361 117.756  0.00  0.00    -0.090 HD
ATOM     20  H   LIG d   1      -5.670  80.604 119.352  0.00  0.00    -0.090 HD
ATOM     21  H   LIG d   1      -6.802  81.157 118.305  0.00  0.00    -0.090 HD
ENDBRANCH   5  18
BRANCH   3  22
ATOM     22  C   LIG d   1     -10.456  78.351 118.915  0.00  0.00     0.382 C 
ATOM     23  O   LIG d   1     -11.327  77.543 118.509  0.00  0.00    -0.241 OA
ATOM     24  O   LIG d   1     -10.777  79.246 119.718  0.00  0.00    -0.241 OA
ENDBRANCH   3  22
TORSDOF 7
ENDMDL
MODEL 2
REMARK VINA RESULT:      -6.0      2.438      5.435
REMARK  7 active torsions:
REMARK  status: ('A' for Active; 'I' for Inactive)
REMARK    1  A    between atoms: C_2  and  C_3 
REMARK    2  A    between atoms: C_3  and  O_6 
REMARK    3  A    between atoms: C_3  and  C_4 
REMARK    4  A    between atoms: C_7  and  O_6 
REMARK    5  A    between atoms: C_9  and  C_10 
REMARK    6  A    between atoms: N_15  and  C_14 
REMARK    7  A    between atoms: N_20  and  C_19 
REMARK       I    between atoms: C_22  and  N_20 
ROOT
ATOM      1  C   LIG d   1      -5.478  75.626 116.865  0.00  0.00     0.161 C 
ATOM      2  C   LIG d   1      -4.364  74.846 116.512  0.00  0.00     0.016 C 
ATOM      3  C   LIG d   1      -3.031  75.218 116.801  0.00  0.00     0.038 C 
ATOM      4  C   LIG d   1      -2.728  76.330 117.601  0.00  0.00     0.028 C 
ATOM      5  C   LIG d   1      -3.793  77.420 117.551  0.00  0.00    -0.047 C 
ATOM      6  C   LIG d   1      -5.173  76.787 117.836  0.00  0.00     0.091 C 
ENDROOT
BRANCH   1   7
ATOM      7  O   LIG d   1      -6.515  74.782 117.403  0.00  0.00    -0.368 OA
BRANCH   7   8
ATOM      8  C   LIG d   1      -7.404  74.169 116.437  0.00  0.00     0.119 C 
BRANCH   8   9
ATOM      9  C   LIG d   1      -8.846  74.384 116.934  0.00  0.00     0.028 C 
ATOM     10  C   LIG d   1      -9.163  75.867 117.194  0.00  0.00     0.006 C 
ENDBRANCH   8   9
BRANCH   8  11
ATOM     11  C   LIG d   1      -7.213  72.651 116.389  0.00  0.00     0.028 C 
ATOM     12  C   LIG d   1      -8.538  71.889 116.230  0.00  0.00     0.006 C 
ENDBRANCH   8  11
ENDBRANCH   7   8
ENDBRANCH   1   7
BRANCH   6  13
ATOM     13  N   LIG d   1      -6.282  77.770 117.723  0.00  0.00    -0.311 N 
ATOM     14  C   LIG d   1      -6.743  78.476 118.754  0.00  0.00     0.210 C 
ATOM     15  C   LIG d   1      -7.905  79.419 118.424  0.00  0.00     0.109 C 
ATOM     16  O   LIG d   1      -6.280  78.435 119.904  0.00  0.00    -0.276 OA
ATOM     17  H   LIG d   1      -6.696  77.889 116.819  0.00  0.00     0.149 HD
ENDBRANCH   6  13
BRANCH   5  18
ATOM     18  N   LIG d   1      -3.417  78.455 118.534  0.00  0.00     0.381 N 
ATOM     19  H   LIG d   1      -3.389  79.350 118.089  0.00  0.00    -0.090 HD
ATOM     20  H   LIG d   1      -2.500  78.249 118.888  0.00  0.00    -0.090 HD
ATOM     21  H   LIG d   1      -4.075  78.469 119.282  0.00  0.00    -0.090 HD
ENDBRANCH   5  18
BRANCH   3  22
ATOM     22  C   LIG d   1      -1.982  74.495 116.253  0.00  0.00     0.382 C 
ATOM     23  O   LIG d   1      -1.812  74.483 115.010  0.00  0.00    -0.241 OA
ATOM     24  O   LIG d   1      -1.231  73.820 116.982  0.00  0.00    -0.241 OA
ENDBRANCH   3  22
TORSDOF 7
ENDMDL
MODEL 3
REMARK VINA RESULT:      -5.7      2.515      4.138
REMARK  7 active torsions:
REMARK  status: ('A' for Active; 'I' for Inactive)
REMARK    1  A    between atoms: C_2  and  C_3 
REMARK    2  A    between atoms: C_3  and  O_6 
REMARK    3  A    between atoms: C_3  and  C_4 
REMARK    4  A    between atoms: C_7  and  O_6 
REMARK    5  A    between atoms: C_9  and  C_10 
REMARK    6  A    between atoms: N_15  and  C_14 
REMARK    7  A    between atoms: N_20  and  C_19 
REMARK       I    between atoms: C_22  and  N_20 
ROOT
ATOM      1  C   LIG d   1      -5.475  75.790 117.537  0.00  0.00     0.161 C 
ATOM      2  C   LIG d   1      -6.076  74.604 117.083  0.00  0.00     0.016 C 
ATOM      3  C   LIG d   1      -7.469  74.462 116.889  0.00  0.00     0.038 C 
ATOM      4  C   LIG d   1      -8.347  75.552 116.992  0.00  0.00     0.028 C 
ATOM      5  C   LIG d   1      -7.851  76.641 117.937  0.00  0.00    -0.047 C 
ATOM      6  C   LIG d   1      -6.404  77.022 117.549  0.00  0.00     0.091 C 
ENDROOT
BRANCH   1   7
ATOM      7  O   LIG d   1      -4.289  76.064 116.765  0.00  0.00    -0.368 OA
BRANCH   7   8
ATOM      8  C   LIG d   1      -4.095  75.248 115.583  0.00  0.00     0.119 C 
BRANCH   8   9
ATOM      9  C   LIG d   1      -2.614  74.825 115.551  0.00  0.00     0.028 C 
ATOM     10  C   LIG d   1      -2.008  74.701 116.959  0.00  0.00     0.006 C 
ENDBRANCH   8   9
BRANCH   8  11
ATOM     11  C   LIG d   1      -4.313  76.060 114.303  0.00  0.00     0.028 C 
ATOM     12  C   LIG d   1      -5.695  75.822 113.674  0.00  0.00     0.006 C 
ENDBRANCH   8  11
ENDBRANCH   7   8
ENDBRANCH   1   7
BRANCH   6  13
ATOM     13  N   LIG d   1      -5.813  78.022 118.476  0.00  0.00    -0.311 N 
ATOM     14  C   LIG d   1      -5.756  79.325 118.209  0.00  0.00     0.210 C 
ATOM     15  C   LIG d   1      -5.088  80.179 119.291  0.00  0.00     0.109 C 
ATOM     16  O   LIG d   1      -6.225  79.860 117.193  0.00  0.00    -0.276 OA
ATOM     17  H   LIG d   1      -5.436  77.678 119.338  0.00  0.00     0.149 HD
ENDBRANCH   6  13
BRANCH   5  18
ATOM     18  N   LIG d   1      -8.791  77.773 117.844  0.00  0.00     0.381 N 
ATOM     19  H   LIG d   1      -8.405  78.488 117.261  0.00  0.00    -0.090 HD
ATOM     20  H   LIG d   1      -8.930  78.157 118.763  0.00  0.00    -0.090 HD
ATOM     21  H   LIG d   1      -9.662  77.464 117.471  0.00  0.00    -0.090 HD
ENDBRANCH   5  18
BRANCH   3  22
ATOM     22  C   LIG d   1      -8.002  73.209 116.626  0.00  0.00     0.382 C 
ATOM     23  O   LIG d   1      -7.241  72.242 116.383  0.00  0.00    -0.241 OA
ATOM     24  O   LIG d   1      -9.236  73.044 116.585  0.00  0.00    -0.241 OA
ENDBRANCH   3  22
TORSDOF 7
ENDMDL
MODEL 4
REMARK VINA RESULT:      -5.5      2.589      3.847
REMARK  7 active torsions:
REMARK  status: ('A' for Active; 'I' for Inactive)
REMARK    1  A    between atoms: C_2  and  C_3 
REMARK    2  A    between atoms: C_3  and  O_6 
REMARK    3  A    between atoms: C_3  and  C_4 
REMARK    4  A    between atoms: C_7  and  O_6 
REMARK    5  A    between atoms: C_9  and  C_10 
REMARK    6  A    between atoms: N_15  and  C_14 
REMARK    7  A    between atoms: N_20  and  C_19 
REMARK       I    between atoms: C_22  and  N_20 
ROOT
ATOM      1  C   LIG d   1      -4.465  75.706 117.370  0.00  0.00     0.161 C 
ATOM      2  C   LIG d   1      -5.528  76.571 117.681  0.00  0.00     0.016 C 
ATOM      3  C   LIG d   1      -5.502  77.960 117.421  0.00  0.00     0.038 C 
ATOM      4  C   LIG d   1      -4.465  78.558 116.689  0.00  0.00     0.028 C 
ATOM      5  C   LIG d   1      -3.139  77.814 116.798  0.00  0.00    -0.047 C 
ATOM      6  C   LIG d   1      -3.373  76.321 116.471  0.00  0.00     0.091 C 
ENDROOT
BRANCH   1   7
ATOM      7  O   LIG d   1      -4.978  74.496 116.778  0.00  0.00    -0.368 OA
BRANCH   7   8
ATOM      8  C   LIG d   1      -6.126  74.648 115.908  0.00  0.00     0.119 C 
BRANCH   8   9
ATOM      9  C   LIG d   1      -7.066  73.455 116.167  0.00  0.00     0.028 C 
ATOM     10  C   LIG d   1      -8.428  73.892 116.731  0.00  0.00     0.006 C 
ENDBRANCH   8   9
BRANCH   8  11
ATOM     11  C   LIG d   1      -5.726  74.537 114.434  0.00  0.00     0.028 C 
ATOM     12  C   LIG d   1      -5.772  75.887 113.700  0.00  0.00     0.006 C 
ENDBRANCH   8  11
ENDBRANCH   7   8
ENDBRANCH   1   7
BRANCH   6  13
ATOM     13  N   LIG d   1      -2.142  75.505 116.636  0.00  0.00    -0.311 N 
ATOM     14  C   LIG d   1      -1.340  75.174 115.625  0.00  0.00     0.210 C 
ATOM     15  C   LIG d   1      -0.136  74.310 116.012  0.00  0.00     0.109 C 
ATOM     16  O   LIG d   1      -1.495  75.540 114.451  0.00  0.00    -0.276 OA
ATOM     17  H   LIG d   1      -1.924  75.191 117.562  0.00  0.00     0.149 HD
ENDBRANCH   6  13
BRANCH   5  18
ATOM     18  N   LIG d   1      -2.185  78.464 115.880  0.00  0.00     0.381 N 
ATOM     19  H   LIG d   1      -1.787  77.782 115.266  0.00  0.00    -0.090 HD
ATOM     20  H   LIG d   1      -1.443  78.875 116.420  0.00  0.00    -0.090 HD
ATOM     21  H   LIG d   1      -2.649  79.169 115.350  0.00  0.00    -0.090 HD
ENDBRANCH   5  18
BRANCH   3  22
ATOM     22  C   LIG d   1      -6.502  78.774 117.930  0.00  0.00     0.382 C 
ATOM     23  O   LIG d   1      -6.692  79.914 117.443  0.00  0.00    -0.241 OA
ATOM     24  O   LIG d   1      -7.189  78.399 118.899  0.00  0.00    -0.241 OA
ENDBRANCH   3  22
TORSDOF 7
ENDMDL
MODEL 5
REMARK VINA RESULT:      -5.4     13.690     16.317
REMARK  7 active torsions:
REMARK  status: ('A' for Active; 'I' for Inactive)
REMARK    1  A    between atoms: C_2  and  C_3 
REMARK    2  A    between atoms: C_3  and  O_6 
REMARK    3  A    between atoms: C_3  and  C_4 
REMARK    4  A    between atoms: C_7  and  O_6 
REMARK    5  A    between atoms: C_9  and  C_10 
REMARK    6  A    between atoms: N_15  and  C_14 
REMARK    7  A    between atoms: N_20  and  C_19 
REMARK       I    between atoms: C_22  and  N_20 
ROOT
ATOM      1  C   LIG d   1      -5.800  92.809 117.171  0.00  0.00     0.161 C 
ATOM      2  C   LIG d   1      -6.489  92.253 116.081  0.00  0.00     0.016 C 
ATOM      3  C   LIG d   1      -6.144  91.015 115.491  0.00  0.00     0.038 C 
ATOM      4  C   LIG d   1      -5.173  90.172 116.051  0.00  0.00     0.028 C 
ATOM      5  C   LIG d   1      -4.110  90.919 116.850  0.00  0.00    -0.047 C 
ATOM      6  C   LIG d   1      -4.809  91.851 117.866  0.00  0.00     0.091 C 
ENDROOT
BRANCH   1   7
ATOM      7  O   LIG d   1      -6.741  93.336 118.127  0.00  0.00    -0.368 OA
BRANCH   7   8
ATOM      8  C   LIG d   1      -6.741  94.775 118.294  0.00  0.00     0.119 C 
BRANCH   8   9
ATOM      9  C   LIG d   1      -6.177  95.078 119.696  0.00  0.00     0.028 C 
ATOM     10  C   LIG d   1      -6.576  94.014 120.732  0.00  0.00     0.006 C 
ENDBRANCH   8   9
BRANCH   8  11
ATOM     11  C   LIG d   1      -8.167  95.334 118.301  0.00  0.00     0.028 C 
ATOM     12  C   LIG d   1      -8.204  96.871 118.315  0.00  0.00     0.006 C 
ENDBRANCH   8  11
ENDBRANCH   7   8
ENDBRANCH   1   7
BRANCH   6  13
ATOM     13  N   LIG d   1      -3.842  92.681 118.631  0.00  0.00    -0.311 N 
ATOM     14  C   LIG d   1      -3.374  92.342 119.831  0.00  0.00     0.210 C 
ATOM     15  C   LIG d   1      -2.402  93.350 120.454  0.00  0.00     0.109 C 
ATOM     16  O   LIG d   1      -3.645  91.287 120.424  0.00  0.00    -0.276 OA
ATOM     17  H   LIG d   1      -3.544  93.539 118.210  0.00  0.00     0.149 HD
ENDBRANCH   6  13
BRANCH   5  18
ATOM     18  N   LIG d   1      -3.244  89.911 117.491  0.00  0.00     0.381 N 
ATOM     19  H   LIG d   1      -2.908  89.267 116.803  0.00  0.00    -0.090 HD
ATOM     20  H   LIG d   1      -3.785  89.399 118.165  0.00  0.00    -0.090 HD
ATOM     21  H   LIG d   1      -2.476  90.358 117.941  0.00  0.00    -0.090 HD
ENDBRANCH   5  18
BRANCH   3  22
ATOM     22  C   LIG d   1      -6.746  90.629 114.303  0.00  0.00     0.382 C 
ATOM     23  O   LIG d   1      -7.583  91.382 113.750  0.00  0.00    -0.241 OA
ATOM     24  O   LIG d   1      -6.496  89.517 113.801  0.00  0.00    -0.241 OA
ENDBRANCH   3  22
TORSDOF 7
ENDMDL
MODEL 6
REMARK VINA RESULT:      -5.4      2.974      6.143
REMARK  7 active torsions:
REMARK  status: ('A' for Active; 'I' for Inactive)
REMARK    1  A    between atoms: C_2  and  C_3 
REMARK    2  A    between atoms: C_3  and  O_6 
REMARK    3  A    between atoms: C_3  and  C_4 
REMARK    4  A    between atoms: C_7  and  O_6 
REMARK    5  A    between atoms: C_9  and  C_10 
REMARK    6  A    between atoms: N_15  and  C_14 
REMARK    7  A    between atoms: N_20  and  C_19 
REMARK       I    between atoms: C_22  and  N_20 
ROOT
ATOM      1  C   LIG d   1      -3.628  75.635 116.869  0.00  0.00     0.161 C 
ATOM      2  C   LIG d   1      -2.539  74.758 116.732  0.00  0.00     0.016 C 
ATOM      3  C   LIG d   1      -1.311  74.931 117.411  0.00  0.00     0.038 C 
ATOM      4  C   LIG d   1      -1.140  75.915 118.396  0.00  0.00     0.028 C 
ATOM      5  C   LIG d   1      -2.040  77.130 118.201  0.00  0.00    -0.047 C 
ATOM      6  C   LIG d   1      -3.499  76.651 118.024  0.00  0.00     0.091 C 
ENDROOT
BRANCH   1   7
ATOM      7  O   LIG d   1      -4.849  74.881 117.000  0.00  0.00    -0.368 OA
BRANCH   7   8
ATOM      8  C   LIG d   1      -5.500  74.503 115.762  0.00  0.00     0.119 C 
BRANCH   8   9
ATOM      9  C   LIG d   1      -6.031  75.793 115.106  0.00  0.00     0.028 C 
ATOM     10  C   LIG d   1      -5.711  75.860 113.603  0.00  0.00     0.006 C 
ENDBRANCH   8   9
BRANCH   8  11
ATOM     11  C   LIG d   1      -6.740  73.643 116.024  0.00  0.00     0.028 C 
ATOM     12  C   LIG d   1      -7.793  74.361 116.883  0.00  0.00     0.006 C 
ENDBRANCH   8  11
ENDBRANCH   7   8
ENDBRANCH   1   7
BRANCH   6  13
ATOM     13  N   LIG d   1      -4.434  77.772 117.743  0.00  0.00    -0.311 N 
ATOM     14  C   LIG d   1      -5.609  77.916 118.352  0.00  0.00     0.210 C 
ATOM     15  C   LIG d   1      -6.427  79.130 117.901  0.00  0.00     0.109 C 
ATOM     16  O   LIG d   1      -6.038  77.172 119.247  0.00  0.00    -0.276 OA
ATOM     17  H   LIG d   1      -4.151  78.440 117.053  0.00  0.00     0.149 HD
ENDBRANCH   6  13
BRANCH   5  18
ATOM     18  N   LIG d   1      -1.859  78.012 119.370  0.00  0.00     0.381 N 
ATOM     19  H   LIG d   1      -0.964  78.457 119.322  0.00  0.00    -0.090 HD
ATOM     20  H   LIG d   1      -1.889  77.454 120.205  0.00  0.00    -0.090 HD
ATOM     21  H   LIG d   1      -2.580  78.699 119.394  0.00  0.00    -0.090 HD
ENDBRANCH   5  18
BRANCH   3  22
ATOM     22  C   LIG d   1      -0.224  74.137 117.077  0.00  0.00     0.382 C 
ATOM     23  O   LIG d   1      -0.250  73.446 116.031  0.00  0.00    -0.241 OA
ATOM     24  O   LIG d   1       0.765  74.070 117.832  0.00  0.00    -0.241 OA
ENDBRANCH   3  22
TORSDOF 7
ENDMDL
MODEL 7
REMARK VINA RESULT:      -5.4     12.647     14.722
REMARK  7 active torsions:
REMARK  status: ('A' for Active; 'I' for Inactive)
REMARK    1  A    between atoms: C_2  and  C_3 
REMARK    2  A    between atoms: C_3  and  O_6 
REMARK    3  A    between atoms: C_3  and  C_4 
REMARK    4  A    between atoms: C_7  and  O_6 
REMARK    5  A    between atoms: C_9  and  C_10 
REMARK    6  A    between atoms: N_15  and  C_14 
REMARK    7  A    between atoms: N_20  and  C_19 
REMARK       I    between atoms: C_22  and  N_20 
ROOT
ATOM      1  C   LIG d   1      -4.335  90.677 117.124  0.00  0.00     0.161 C 
ATOM      2  C   LIG d   1      -5.004  90.299 115.948  0.00  0.00     0.016 C 
ATOM      3  C   LIG d   1      -6.022  91.076 115.348  0.00  0.00     0.038 C 
ATOM      4  C   LIG d   1      -6.337  92.365 115.803  0.00  0.00     0.028 C 
ATOM      5  C   LIG d   1      -6.040  92.574 117.284  0.00  0.00    -0.047 C 
ATOM      6  C   LIG d   1      -4.587  92.132 117.572  0.00  0.00     0.091 C 
ENDROOT
BRANCH   1   7
ATOM      7  O   LIG d   1      -2.922  90.435 116.981  0.00  0.00    -0.368 OA
BRANCH   7   8
ATOM      8  C   LIG d   1      -2.334  89.512 117.932  0.00  0.00     0.119 C 
BRANCH   8   9
ATOM      9  C   LIG d   1      -0.964  90.084 118.345  0.00  0.00     0.028 C 
ATOM     10  C   LIG d   1      -0.341  90.965 117.249  0.00  0.00     0.006 C 
ENDBRANCH   8   9
BRANCH   8  11
ATOM     11  C   LIG d   1      -2.030  88.160 117.281  0.00  0.00     0.028 C 
ATOM     12  C   LIG d   1      -1.321  87.186 118.235  0.00  0.00     0.006 C 
ENDBRANCH   8  11
ENDBRANCH   7   8
ENDBRANCH   1   7
BRANCH   6  13
ATOM     13  N   LIG d   1      -4.242  92.225 119.015  0.00  0.00    -0.311 N 
ATOM     14  C   LIG d   1      -3.181  92.886 119.474  0.00  0.00     0.210 C 
ATOM     15  C   LIG d   1      -2.998  92.839 120.994  0.00  0.00     0.109 C 
ATOM     16  O   LIG d   1      -2.393  93.534 118.770  0.00  0.00    -0.276 OA
ATOM     17  H   LIG d   1      -4.846  91.754 119.659  0.00  0.00     0.149 HD
ENDBRANCH   6  13
BRANCH   5  18
ATOM     18  N   LIG d   1      -6.284  93.996 117.591  0.00  0.00     0.381 N 
ATOM     19  H   LIG d   1      -7.240  94.224 117.403  0.00  0.00    -0.090 HD
ATOM     20  H   LIG d   1      -5.702  94.561 116.998  0.00  0.00    -0.090 HD
ATOM     21  H   LIG d   1      -6.073  94.179 118.548  0.00  0.00    -0.090 HD
ENDBRANCH   5  18
BRANCH   3  22
ATOM     22  C   LIG d   1      -6.765  90.546 114.304  0.00  0.00     0.382 C 
ATOM     23  O   LIG d   1      -6.469  89.423 113.830  0.00  0.00    -0.241 OA
ATOM     24  O   LIG d   1      -7.699  91.198 113.799  0.00  0.00    -0.241 OA
ENDBRANCH   3  22
TORSDOF 7
ENDMDL
MODEL 8
REMARK VINA RESULT:      -5.4      2.671      6.124
REMARK  7 active torsions:
REMARK  status: ('A' for Active; 'I' for Inactive)
REMARK    1  A    between atoms: C_2  and  C_3 
REMARK    2  A    between atoms: C_3  and  O_6 
REMARK    3  A    between atoms: C_3  and  C_4 
REMARK    4  A    between atoms: C_7  and  O_6 
REMARK    5  A    between atoms: C_9  and  C_10 
REMARK    6  A    between atoms: N_15  and  C_14 
REMARK    7  A    between atoms: N_20  and  C_19 
REMARK       I    between atoms: C_22  and  N_20 
ROOT
ATOM      1  C   LIG d   1      -4.907  76.786 117.674  0.00  0.00     0.161 C 
ATOM      2  C   LIG d   1      -3.933  77.787 117.824  0.00  0.00     0.016 C 
ATOM      3  C   LIG d   1      -2.596  77.644 117.388  0.00  0.00     0.038 C 
ATOM      4  C   LIG d   1      -2.178  76.540 116.630  0.00  0.00     0.028 C 
ATOM      5  C   LIG d   1      -2.996  75.280 116.892  0.00  0.00    -0.047 C 
ATOM      6  C   LIG d   1      -4.498  75.619 116.751  0.00  0.00     0.091 C 
ENDROOT
BRANCH   1   7
ATOM      7  O   LIG d   1      -6.144  77.372 117.223  0.00  0.00    -0.368 OA
BRANCH   7   8
ATOM      8  C   LIG d   1      -7.258  77.298 118.146  0.00  0.00     0.119 C 
BRANCH   8   9
ATOM      9  C   LIG d   1      -8.384  76.508 117.451  0.00  0.00     0.028 C 
ATOM     10  C   LIG d   1      -9.776  76.860 118.003  0.00  0.00     0.006 C 
ENDBRANCH   8   9
BRANCH   8  11
ATOM     11  C   LIG d   1      -7.847  78.685 118.421  0.00  0.00     0.028 C 
ATOM     12  C   LIG d   1      -6.918  79.825 117.975  0.00  0.00     0.006 C 
ENDBRANCH   8  11
ENDBRANCH   7   8
ENDBRANCH   1   7
BRANCH   6  13
ATOM     13  N   LIG d   1      -5.373  74.462 117.073  0.00  0.00    -0.311 N 
ATOM     14  C   LIG d   1      -6.158  73.865 116.178  0.00  0.00     0.210 C 
ATOM     15  C   LIG d   1      -6.994  72.703 116.725  0.00  0.00     0.109 C 
ATOM     16  O   LIG d   1      -6.217  74.166 114.977  0.00  0.00    -0.276 OA
ATOM     17  H   LIG d   1      -5.363  74.133 118.019  0.00  0.00     0.149 HD
ENDBRANCH   6  13
BRANCH   5  18
ATOM     18  N   LIG d   1      -2.544  74.249 115.939  0.00  0.00     0.381 N 
ATOM     19  H   LIG d   1      -3.266  73.569 115.808  0.00  0.00    -0.090 HD
ATOM     20  H   LIG d   1      -1.739  73.785 116.320  0.00  0.00    -0.090 HD
ATOM     21  H   LIG d   1      -2.312  74.669 115.066  0.00  0.00    -0.090 HD
ENDBRANCH   5  18
BRANCH   3  22
ATOM     22  C   LIG d   1      -1.651  78.594 117.744  0.00  0.00     0.382 C 
ATOM     23  O   LIG d   1      -1.609  79.026 118.921  0.00  0.00    -0.241 OA
ATOM     24  O   LIG d   1      -0.870  79.058 116.892  0.00  0.00    -0.241 OA
ENDBRANCH   3  22
TORSDOF 7
ENDMDL
MODEL 9
REMARK VINA RESULT:      -5.0      2.102      4.317
REMARK  7 active torsions:
REMARK  status: ('A' for Active; 'I' for Inactive)
REMARK    1  A    between atoms: C_2  and  C_3 
REMARK    2  A    between atoms: C_3  and  O_6 
REMARK    3  A    between atoms: C_3  and  C_4 
REMARK    4  A    between atoms: C_7  and  O_6 
REMARK    5  A    between atoms: C_9  and  C_10 
REMARK    6  A    between atoms: N_15  and  C_14 
REMARK    7  A    between atoms: N_20  and  C_19 
REMARK       I    between atoms: C_22  and  N_20 
ROOT
ATOM      1  C   LIG d   1      -7.055  77.914 118.046  0.00  0.00     0.161 C 
ATOM      2  C   LIG d   1      -8.088  78.707 118.572  0.00  0.00     0.016 C 
ATOM      3  C   LIG d   1      -9.444  78.305 118.594  0.00  0.00     0.038 C 
ATOM      4  C   LIG d   1      -9.839  77.010 118.225  0.00  0.00     0.028 C 
ATOM      5  C   LIG d   1      -8.901  76.355 117.216  0.00  0.00    -0.047 C 
ATOM      6  C   LIG d   1      -7.451  76.454 117.741  0.00  0.00     0.091 C 
ENDROOT
BRANCH   1   7
ATOM      7  O   LIG d   1      -5.915  77.950 118.927  0.00  0.00    -0.368 OA
BRANCH   7   8
ATOM      8  C   LIG d   1      -4.755  78.669 118.440  0.00  0.00     0.119 C 
BRANCH   8   9
ATOM      9  C   LIG d   1      -4.735  80.043 119.139  0.00  0.00     0.028 C 
ATOM     10  C   LIG d   1      -3.360  80.373 119.744  0.00  0.00     0.006 C 
ENDBRANCH   8   9
BRANCH   8  11
ATOM     11  C   LIG d   1      -4.878  78.977 116.945  0.00  0.00     0.028 C 
ATOM     12  C   LIG d   1      -3.841  78.228 116.094  0.00  0.00     0.006 C 
ENDBRANCH   8  11
ENDBRANCH   7   8
ENDBRANCH   1   7
BRANCH   6  13
ATOM     13  N   LIG d   1      -6.460  75.912 116.775  0.00  0.00    -0.311 N 
ATOM     14  C   LIG d   1      -6.051  74.645 116.778  0.00  0.00     0.210 C 
ATOM     15  C   LIG d   1      -5.009  74.299 115.709  0.00  0.00     0.109 C 
ATOM     16  O   LIG d   1      -6.475  73.766 117.544  0.00  0.00    -0.276 OA
ATOM     17  H   LIG d   1      -6.087  76.549 116.098  0.00  0.00     0.149 HD
ENDBRANCH   6  13
BRANCH   5  18
ATOM     18  N   LIG d   1      -9.354  74.964 117.025  0.00  0.00     0.381 N 
ATOM     19  H   LIG d   1     -10.312  74.878 117.300  0.00  0.00    -0.090 HD
ATOM     20  H   LIG d   1      -8.803  74.360 117.609  0.00  0.00    -0.090 HD
ATOM     21  H   LIG d   1      -9.250  74.700 116.070  0.00  0.00    -0.090 HD
ENDBRANCH   5  18
BRANCH   3  22
ATOM     22  C   LIG d   1     -10.426  79.216 118.950  0.00  0.00     0.382 C 
ATOM     23  O   LIG d   1     -10.715  80.160 118.176  0.00  0.00    -0.241 OA
ATOM     24  O   LIG d   1     -10.994  79.133 120.055  0.00  0.00    -0.241 OA
ENDBRANCH   3  22
TORSDOF 7
ENDMDL
