MODEL 1
REMARK VINA RESULT:      -5.6      0.000      0.000
REMARK  7 active torsions:
REMARK  status: ('A' for Active; 'I' for Inactive)
REMARK    1  A    between atoms: C_2  and  C_3 
REMARK    2  A    between atoms: C_3  and  O_6 
REMARK    3  A    between atoms: C_3  and  C_4 
REMARK    4  A    between atoms: C_7  and  O_6 
REMARK    5  A    between atoms: C_9  and  C_10 
REMARK    6  A    between atoms: N_15  and  C_14 
REMARK    7  A    between atoms: N_20  and  C_19 
REMARK       I    between atoms: C_22  and  N_20 
ROOT
ATOM      1  C   LIG d   1      -8.322  74.526 117.199  0.00  0.00     0.161 C 
ATOM      2  C   LIG d   1      -8.235  73.169 116.850  0.00  0.00     0.016 C 
ATOM      3  C   LIG d   1      -9.066  72.168 117.403  0.00  0.00     0.038 C 
ATOM      4  C   LIG d   1     -10.150  72.481 118.237  0.00  0.00     0.028 C 
ATOM      5  C   LIG d   1      -9.962  73.781 119.012  0.00  0.00    -0.047 C 
ATOM      6  C   LIG d   1      -9.572  74.903 118.023  0.00  0.00     0.091 C 
ENDROOT
BRANCH   1   7
ATOM      7  O   LIG d   1      -8.239  75.342 116.014  0.00  0.00    -0.368 OA
BRANCH   7   8
ATOM      8  C   LIG d   1      -6.997  76.062 115.822  0.00  0.00     0.119 C 
BRANCH   8   9
ATOM      9  C   LIG d   1      -6.312  75.478 114.570  0.00  0.00     0.028 C 
ATOM     10  C   LIG d   1      -5.309  74.365 114.916  0.00  0.00     0.006 C 
ENDBRANCH   8   9
BRANCH   8  11
ATOM     11  C   LIG d   1      -6.021  75.807 116.974  0.00  0.00     0.028 C 
ATOM     12  C   LIG d   1      -5.703  77.078 117.778  0.00  0.00     0.006 C 
ENDBRANCH   8  11
ENDBRANCH   7   8
ENDBRANCH   1   7
BRANCH   6  13
ATOM     13  N   LIG d   1      -9.286  76.190 118.710  0.00  0.00    -0.311 N 
ATOM     14  C   LIG d   1     -10.173  77.178 118.813  0.00  0.00     0.210 C 
ATOM     15  C   LIG d   1      -9.668  78.427 119.543  0.00  0.00     0.109 C 
ATOM     16  O   LIG d   1     -11.340  77.128 118.396  0.00  0.00    -0.276 OA
ATOM     17  H   LIG d   1      -8.373  76.303 119.104  0.00  0.00     0.149 HD
ENDBRANCH   6  13
BRANCH   5  18
ATOM     18  N   LIG d   1     -11.219  74.056 119.732  0.00  0.00     0.381 N 
ATOM     19  H   LIG d   1     -11.871  74.502 119.118  0.00  0.00    -0.090 HD
ATOM     20  H   LIG d   1     -11.027  74.681 120.495  0.00  0.00    -0.090 HD
ATOM     21  H   LIG d   1     -11.606  73.206 120.080  0.00  0.00    -0.090 HD
ENDBRANCH   5  18
BRANCH   3  22
ATOM     22  C   LIG d   1      -8.792  70.831 117.154  0.00  0.00     0.382 C 
ATOM     23  O   LIG d   1      -9.425  69.937 117.765  0.00  0.00    -0.241 OA
ATOM     24  O   LIG d   1      -7.888  70.509 116.360  0.00  0.00    -0.241 OA
ENDBRANCH   3  22
TORSDOF 7
ENDMDL
MODEL 2
REMARK VINA RESULT:      -5.6     15.248     18.410
REMARK  7 active torsions:
REMARK  status: ('A' for Active; 'I' for Inactive)
REMARK    1  A    between atoms: C_2  and  C_3 
REMARK    2  A    between atoms: C_3  and  O_6 
REMARK    3  A    between atoms: C_3  and  C_4 
REMARK    4  A    between atoms: C_7  and  O_6 
REMARK    5  A    between atoms: C_9  and  C_10 
REMARK    6  A    between atoms: N_15  and  C_14 
REMARK    7  A    between atoms: N_20  and  C_19 
REMARK       I    between atoms: C_22  and  N_20 
ROOT
ATOM      1  C   LIG d   1      -5.674  92.299 117.512  0.00  0.00     0.161 C 
ATOM      2  C   LIG d   1      -6.649  91.334 117.211  0.00  0.00     0.016 C 
ATOM      3  C   LIG d   1      -6.344  89.982 116.929  0.00  0.00     0.038 C 
ATOM      4  C   LIG d   1      -5.048  89.467 117.080  0.00  0.00     0.028 C 
ATOM      5  C   LIG d   1      -3.955  90.513 116.891  0.00  0.00    -0.047 C 
ATOM      6  C   LIG d   1      -4.266  91.732 117.790  0.00  0.00     0.091 C 
ENDROOT
BRANCH   1   7
ATOM      7  O   LIG d   1      -6.115  93.109 118.620  0.00  0.00    -0.368 OA
BRANCH   7   8
ATOM      8  C   LIG d   1      -6.532  94.459 118.296  0.00  0.00     0.119 C 
BRANCH   8   9
ATOM      9  C   LIG d   1      -6.005  95.385 119.409  0.00  0.00     0.028 C 
ATOM     10  C   LIG d   1      -4.949  94.700 120.293  0.00  0.00     0.006 C 
ENDBRANCH   8   9
BRANCH   8  11
ATOM     11  C   LIG d   1      -8.056  94.598 118.341  0.00  0.00     0.028 C 
ATOM     12  C   LIG d   1      -8.582  94.950 119.742  0.00  0.00     0.006 C 
ENDBRANCH   8  11
ENDBRANCH   7   8
ENDBRANCH   1   7
BRANCH   6  13
ATOM     13  N   LIG d   1      -3.291  92.838 117.604  0.00  0.00    -0.311 N 
ATOM     14  C   LIG d   1      -2.223  93.012 118.381  0.00  0.00     0.210 C 
ATOM     15  C   LIG d   1      -1.359  94.226 118.028  0.00  0.00     0.109 C 
ATOM     16  O   LIG d   1      -1.893  92.259 119.309  0.00  0.00    -0.276 OA
ATOM     17  H   LIG d   1      -3.466  93.478 116.854  0.00  0.00     0.149 HD
ENDBRANCH   6  13
BRANCH   5  18
ATOM     18  N   LIG d   1      -2.665  89.873 117.211  0.00  0.00     0.381 N 
ATOM     19  H   LIG d   1      -1.938  90.280 116.657  0.00  0.00    -0.090 HD
ATOM     20  H   LIG d   1      -2.723  88.896 116.987  0.00  0.00    -0.090 HD
ATOM     21  H   LIG d   1      -2.459  89.987 118.179  0.00  0.00    -0.090 HD
ENDBRANCH   5  18
BRANCH   3  22
ATOM     22  C   LIG d   1      -7.337  89.139 116.453  0.00  0.00     0.382 C 
ATOM     23  O   LIG d   1      -7.983  88.418 117.251  0.00  0.00    -0.241 OA
ATOM     24  O   LIG d   1      -7.564  89.057 115.231  0.00  0.00    -0.241 OA
ENDBRANCH   3  22
TORSDOF 7
ENDMDL
MODEL 3
REMARK VINA RESULT:      -5.5      2.543      6.405
REMARK  7 active torsions:
REMARK  status: ('A' for Active; 'I' for Inactive)
REMARK    1  A    between atoms: C_2  and  C_3 
REMARK    2  A    between atoms: C_3  and  O_6 
REMARK    3  A    between atoms: C_3  and  C_4 
REMARK    4  A    between atoms: C_7  and  O_6 
REMARK    5  A    between atoms: C_9  and  C_10 
REMARK    6  A    between atoms: N_15  and  C_14 
REMARK    7  A    between atoms: N_20  and  C_19 
REMARK       I    between atoms: C_22  and  N_20 
ROOT
ATOM      1  C   LIG d   1      -9.910  76.277 118.167  0.00  0.00     0.161 C 
ATOM      2  C   LIG d   1     -10.579  77.283 118.884  0.00  0.00     0.016 C 
ATOM      3  C   LIG d   1     -10.014  78.549 119.158  0.00  0.00     0.038 C 
ATOM      4  C   LIG d   1      -8.791  78.953 118.600  0.00  0.00     0.028 C 
ATOM      5  C   LIG d   1      -7.855  77.790 118.289  0.00  0.00    -0.047 C 
ATOM      6  C   LIG d   1      -8.621  76.738 117.455  0.00  0.00     0.091 C 
ENDROOT
BRANCH   1   7
ATOM      7  O   LIG d   1     -10.813  75.667 117.223  0.00  0.00    -0.368 OA
BRANCH   7   8
ATOM      8  C   LIG d   1     -11.407  74.410 117.630  0.00  0.00     0.119 C 
BRANCH   8   9
ATOM      9  C   LIG d   1     -12.512  74.731 118.656  0.00  0.00     0.028 C 
ATOM     10  C   LIG d   1     -12.436  73.830 119.900  0.00  0.00     0.006 C 
ENDBRANCH   8   9
BRANCH   8  11
ATOM     11  C   LIG d   1     -10.399  73.534 118.380  0.00  0.00     0.028 C 
ATOM     12  C   LIG d   1      -9.678  72.535 117.461  0.00  0.00     0.006 C 
ENDBRANCH   8  11
ENDBRANCH   7   8
ENDBRANCH   1   7
BRANCH   6  13
ATOM     13  N   LIG d   1      -7.803  75.528 117.179  0.00  0.00    -0.311 N 
ATOM     14  C   LIG d   1      -7.121  75.346 116.049  0.00  0.00     0.210 C 
ATOM     15  C   LIG d   1      -6.359  74.020 115.960  0.00  0.00     0.109 C 
ATOM     16  O   LIG d   1      -7.050  76.171 115.126  0.00  0.00    -0.276 OA
ATOM     17  H   LIG d   1      -7.779  74.822 117.888  0.00  0.00     0.149 HD
ENDBRANCH   6  13
BRANCH   5  18
ATOM     18  N   LIG d   1      -6.680  78.340 117.587  0.00  0.00     0.381 N 
ATOM     19  H   LIG d   1      -6.941  79.164 117.084  0.00  0.00    -0.090 HD
ATOM     20  H   LIG d   1      -6.347  77.659 116.928  0.00  0.00    -0.090 HD
ATOM     21  H   LIG d   1      -5.961  78.556 118.243  0.00  0.00    -0.090 HD
ENDBRANCH   5  18
BRANCH   3  22
ATOM     22  C   LIG d   1     -10.655  79.414 120.032  0.00  0.00     0.382 C 
ATOM     23  O   LIG d   1     -11.311  78.955 120.999  0.00  0.00    -0.241 OA
ATOM     24  O   LIG d   1     -10.624  80.644 119.841  0.00  0.00    -0.241 OA
ENDBRANCH   3  22
TORSDOF 7
ENDMDL
MODEL 4
REMARK VINA RESULT:      -5.4     15.185     18.182
REMARK  7 active torsions:
REMARK  status: ('A' for Active; 'I' for Inactive)
REMARK    1  A    between atoms: C_2  and  C_3 
REMARK    2  A    between atoms: C_3  and  O_6 
REMARK    3  A    between atoms: C_3  and  C_4 
REMARK    4  A    between atoms: C_7  and  O_6 
REMARK    5  A    between atoms: C_9  and  C_10 
REMARK    6  A    between atoms: N_15  and  C_14 
REMARK    7  A    between atoms: N_20  and  C_19 
REMARK       I    between atoms: C_22  and  N_20 
ROOT
ATOM      1  C   LIG d   1      -5.614  92.349 117.423  0.00  0.00     0.161 C 
ATOM      2  C   LIG d   1      -6.600  91.387 117.144  0.00  0.00     0.016 C 
ATOM      3  C   LIG d   1      -6.313  90.021 116.922  0.00  0.00     0.038 C 
ATOM      4  C   LIG d   1      -5.028  89.492 117.114  0.00  0.00     0.028 C 
ATOM      5  C   LIG d   1      -3.915  90.513 116.902  0.00  0.00    -0.047 C 
ATOM      6  C   LIG d   1      -4.220  91.771 117.746  0.00  0.00     0.091 C 
ENDROOT
BRANCH   1   7
ATOM      7  O   LIG d   1      -6.059  93.209 118.490  0.00  0.00    -0.368 OA
BRANCH   7   8
ATOM      8  C   LIG d   1      -5.681  92.811 119.830  0.00  0.00     0.119 C 
BRANCH   8   9
ATOM      9  C   LIG d   1      -6.970  92.411 120.575  0.00  0.00     0.028 C 
ATOM     10  C   LIG d   1      -8.028  93.527 120.558  0.00  0.00     0.006 C 
ENDBRANCH   8   9
BRANCH   8  11
ATOM     11  C   LIG d   1      -5.105  93.989 120.620  0.00  0.00     0.028 C 
ATOM     12  C   LIG d   1      -4.871  95.233 119.749  0.00  0.00     0.006 C 
ENDBRANCH   8  11
ENDBRANCH   7   8
ENDBRANCH   1   7
BRANCH   6  13
ATOM     13  N   LIG d   1      -3.224  92.853 117.532  0.00  0.00    -0.311 N 
ATOM     14  C   LIG d   1      -2.182  93.060 118.335  0.00  0.00     0.210 C 
ATOM     15  C   LIG d   1      -1.289  94.242 117.945  0.00  0.00     0.109 C 
ATOM     16  O   LIG d   1      -1.895  92.357 119.316  0.00  0.00    -0.276 OA
ATOM     17  H   LIG d   1      -3.364  93.451 116.741  0.00  0.00     0.149 HD
ENDBRANCH   6  13
BRANCH   5  18
ATOM     18  N   LIG d   1      -2.641  89.866 117.268  0.00  0.00     0.381 N 
ATOM     19  H   LIG d   1      -2.696  89.514 118.203  0.00  0.00    -0.090 HD
ATOM     20  H   LIG d   1      -1.906  90.550 117.231  0.00  0.00    -0.090 HD
ATOM     21  H   LIG d   1      -2.443  89.121 116.636  0.00  0.00    -0.090 HD
ENDBRANCH   5  18
BRANCH   3  22
ATOM     22  C   LIG d   1      -7.311  89.175 116.463  0.00  0.00     0.382 C 
ATOM     23  O   LIG d   1      -7.937  88.447 117.272  0.00  0.00    -0.241 OA
ATOM     24  O   LIG d   1      -7.564  89.097 115.246  0.00  0.00    -0.241 OA
ENDBRANCH   3  22
TORSDOF 7
ENDMDL
MODEL 5
REMARK VINA RESULT:      -5.4      2.907      6.467
REMARK  7 active torsions:
REMARK  status: ('A' for Active; 'I' for Inactive)
REMARK    1  A    between atoms: C_2  and  C_3 
REMARK    2  A    between atoms: C_3  and  O_6 
REMARK    3  A    between atoms: C_3  and  C_4 
REMARK    4  A    between atoms: C_7  and  O_6 
REMARK    5  A    between atoms: C_9  and  C_10 
REMARK    6  A    between atoms: N_15  and  C_14 
REMARK    7  A    between atoms: N_20  and  C_19 
REMARK       I    between atoms: C_22  and  N_20 
ROOT
ATOM      1  C   LIG d   1      -8.359  76.915 117.938  0.00  0.00     0.161 C 
ATOM      2  C   LIG d   1      -9.416  77.823 118.111  0.00  0.00     0.016 C 
ATOM      3  C   LIG d   1      -9.236  79.224 118.179  0.00  0.00     0.038 C 
ATOM      4  C   LIG d   1      -7.995  79.825 117.926  0.00  0.00     0.028 C 
ATOM      5  C   LIG d   1      -6.808  78.923 118.246  0.00  0.00    -0.047 C 
ATOM      6  C   LIG d   1      -7.011  77.559 117.548  0.00  0.00     0.091 C 
ENDROOT
BRANCH   1   7
ATOM      7  O   LIG d   1      -8.731  75.910 116.975  0.00  0.00    -0.368 OA
BRANCH   7   8
ATOM      8  C   LIG d   1      -9.336  74.707 117.510  0.00  0.00     0.119 C 
BRANCH   8   9
ATOM      9  C   LIG d   1      -8.450  73.517 117.092  0.00  0.00     0.028 C 
ATOM     10  C   LIG d   1      -9.148  72.163 117.303  0.00  0.00     0.006 C 
ENDBRANCH   8   9
BRANCH   8  11
ATOM     11  C   LIG d   1     -10.702  74.439 116.873  0.00  0.00     0.028 C 
ATOM     12  C   LIG d   1     -11.874  74.814 117.794  0.00  0.00     0.006 C 
ENDBRANCH   8  11
ENDBRANCH   7   8
ENDBRANCH   1   7
BRANCH   6  13
ATOM     13  N   LIG d   1      -5.937  76.587 117.878  0.00  0.00    -0.311 N 
ATOM     14  C   LIG d   1      -4.850  76.412 117.127  0.00  0.00     0.210 C 
ATOM     15  C   LIG d   1      -3.876  75.345 117.637  0.00  0.00     0.109 C 
ATOM     16  O   LIG d   1      -4.585  77.062 116.104  0.00  0.00    -0.276 OA
ATOM     17  H   LIG d   1      -6.055  76.040 118.708  0.00  0.00     0.149 HD
ENDBRANCH   6  13
BRANCH   5  18
ATOM     18  N   LIG d   1      -5.585  79.621 117.806  0.00  0.00     0.381 N 
ATOM     19  H   LIG d   1      -5.816  80.540 117.487  0.00  0.00    -0.090 HD
ATOM     20  H   LIG d   1      -5.179  79.114 117.040  0.00  0.00    -0.090 HD
ATOM     21  H   LIG d   1      -4.935  79.676 118.559  0.00  0.00    -0.090 HD
ENDBRANCH   5  18
BRANCH   3  22
ATOM     22  C   LIG d   1     -10.299  80.036 118.544  0.00  0.00     0.382 C 
ATOM     23  O   LIG d   1     -10.809  80.817 117.704  0.00  0.00    -0.241 OA
ATOM     24  O   LIG d   1     -10.726  80.031 119.714  0.00  0.00    -0.241 OA
ENDBRANCH   3  22
TORSDOF 7
ENDMDL
MODEL 6
REMARK VINA RESULT:      -5.1     14.639     17.647
REMARK  7 active torsions:
REMARK  status: ('A' for Active; 'I' for Inactive)
REMARK    1  A    between atoms: C_2  and  C_3 
REMARK    2  A    between atoms: C_3  and  O_6 
REMARK    3  A    between atoms: C_3  and  C_4 
REMARK    4  A    between atoms: C_7  and  O_6 
REMARK    5  A    between atoms: C_9  and  C_10 
REMARK    6  A    between atoms: N_15  and  C_14 
REMARK    7  A    between atoms: N_20  and  C_19 
REMARK       I    between atoms: C_22  and  N_20 
ROOT
ATOM      1  C   LIG d   1      -5.898  90.386 118.623  0.00  0.00     0.161 C 
ATOM      2  C   LIG d   1      -6.474  91.654 118.437  0.00  0.00     0.016 C 
ATOM      3  C   LIG d   1      -5.746  92.862 118.542  0.00  0.00     0.038 C 
ATOM      4  C   LIG d   1      -4.352  92.876 118.693  0.00  0.00     0.028 C 
ATOM      5  C   LIG d   1      -3.805  91.634 119.389  0.00  0.00    -0.047 C 
ATOM      6  C   LIG d   1      -4.356  90.377 118.679  0.00  0.00     0.091 C 
ENDROOT
BRANCH   1   7
ATOM      7  O   LIG d   1      -6.368  89.482 117.604  0.00  0.00    -0.368 OA
BRANCH   7   8
ATOM      8  C   LIG d   1      -7.002  90.093 116.453  0.00  0.00     0.119 C 
BRANCH   8   9
ATOM      9  C   LIG d   1      -8.059  89.103 115.927  0.00  0.00     0.028 C 
ATOM     10  C   LIG d   1      -8.787  88.363 117.062  0.00  0.00     0.006 C 
ENDBRANCH   8   9
BRANCH   8  11
ATOM     11  C   LIG d   1      -6.009  90.275 115.301  0.00  0.00     0.028 C 
ATOM     12  C   LIG d   1      -6.009  91.704 114.735  0.00  0.00     0.006 C 
ENDBRANCH   8  11
ENDBRANCH   7   8
ENDBRANCH   1   7
BRANCH   6  13
ATOM     13  N   LIG d   1      -3.938  89.118 119.348  0.00  0.00    -0.311 N 
ATOM     14  C   LIG d   1      -2.899  88.386 118.949  0.00  0.00     0.210 C 
ATOM     15  C   LIG d   1      -2.652  87.114 119.766  0.00  0.00     0.109 C 
ATOM     16  O   LIG d   1      -2.139  88.686 118.016  0.00  0.00    -0.276 OA
ATOM     17  H   LIG d   1      -4.480  88.817 120.134  0.00  0.00     0.149 HD
ENDBRANCH   6  13
BRANCH   5  18
ATOM     18  N   LIG d   1      -2.332  91.717 119.357  0.00  0.00     0.381 N 
ATOM     19  H   LIG d   1      -1.955  91.392 120.224  0.00  0.00    -0.090 HD
ATOM     20  H   LIG d   1      -2.063  92.678 119.237  0.00  0.00    -0.090 HD
ATOM     21  H   LIG d   1      -1.976  91.169 118.605  0.00  0.00    -0.090 HD
ENDBRANCH   5  18
BRANCH   3  22
ATOM     22  C   LIG d   1      -6.421  94.073 118.537  0.00  0.00     0.382 C 
ATOM     23  O   LIG d   1      -5.864  95.103 118.987  0.00  0.00    -0.241 OA
ATOM     24  O   LIG d   1      -7.595  94.140 118.127  0.00  0.00    -0.241 OA
ENDBRANCH   3  22
TORSDOF 7
ENDMDL
MODEL 7
REMARK VINA RESULT:      -5.1     10.817     13.797
REMARK  7 active torsions:
REMARK  status: ('A' for Active; 'I' for Inactive)
REMARK    1  A    between atoms: C_2  and  C_3 
REMARK    2  A    between atoms: C_3  and  O_6 
REMARK    3  A    between atoms: C_3  and  C_4 
REMARK    4  A    between atoms: C_7  and  O_6 
REMARK    5  A    between atoms: C_9  and  C_10 
REMARK    6  A    between atoms: N_15  and  C_14 
REMARK    7  A    between atoms: N_20  and  C_19 
REMARK       I    between atoms: C_22  and  N_20 
ROOT
ATOM      1  C   LIG d   1     -16.769  64.116 116.560  0.00  0.00     0.161 C 
ATOM      2  C   LIG d   1     -17.305  62.854 116.253  0.00  0.00     0.016 C 
ATOM      3  C   LIG d   1     -17.842  62.523 114.988  0.00  0.00     0.038 C 
ATOM      4  C   LIG d   1     -17.741  63.390 113.890  0.00  0.00     0.028 C 
ATOM      5  C   LIG d   1     -17.663  64.861 114.285  0.00  0.00    -0.047 C 
ATOM      6  C   LIG d   1     -16.549  65.038 115.342  0.00  0.00     0.091 C 
ENDROOT
BRANCH   1   7
ATOM      7  O   LIG d   1     -15.541  63.959 117.297  0.00  0.00    -0.368 OA
BRANCH   7   8
ATOM      8  C   LIG d   1     -15.621  63.166 118.508  0.00  0.00     0.119 C 
BRANCH   8   9
ATOM      9  C   LIG d   1     -15.372  64.112 119.698  0.00  0.00     0.028 C 
ATOM     10  C   LIG d   1     -14.960  65.525 119.249  0.00  0.00     0.006 C 
ENDBRANCH   8   9
BRANCH   8  11
ATOM     11  C   LIG d   1     -14.495  62.130 118.571  0.00  0.00     0.028 C 
ATOM     12  C   LIG d   1     -14.924  60.825 119.259  0.00  0.00     0.006 C 
ENDBRANCH   8  11
ENDBRANCH   7   8
ENDBRANCH   1   7
BRANCH   6  13
ATOM     13  N   LIG d   1     -16.462  66.434 115.845  0.00  0.00    -0.311 N 
ATOM     14  C   LIG d   1     -15.685  67.364 115.294  0.00  0.00     0.210 C 
ATOM     15  C   LIG d   1     -15.729  68.733 115.980  0.00  0.00     0.109 C 
ATOM     16  O   LIG d   1     -14.988  67.195 114.282  0.00  0.00    -0.276 OA
ATOM     17  H   LIG d   1     -17.018  66.666 116.644  0.00  0.00     0.149 HD
ENDBRANCH   6  13
BRANCH   5  18
ATOM     18  N   LIG d   1     -17.422  65.640 113.056  0.00  0.00     0.381 N 
ATOM     19  H   LIG d   1     -18.055  65.346 112.339  0.00  0.00    -0.090 HD
ATOM     20  H   LIG d   1     -16.484  65.467 112.739  0.00  0.00    -0.090 HD
ATOM     21  H   LIG d   1     -17.545  66.612 113.238  0.00  0.00    -0.090 HD
ENDBRANCH   5  18
BRANCH   3  22
ATOM     22  C   LIG d   1     -18.525  61.327 114.823  0.00  0.00     0.382 C 
ATOM     23  O   LIG d   1     -18.195  60.539 113.903  0.00  0.00    -0.241 OA
ATOM     24  O   LIG d   1     -19.494  61.047 115.553  0.00  0.00    -0.241 OA
ENDBRANCH   3  22
TORSDOF 7
ENDMDL
MODEL 8
REMARK VINA RESULT:      -5.1     14.977     17.190
REMARK  7 active torsions:
REMARK  status: ('A' for Active; 'I' for Inactive)
REMARK    1  A    between atoms: C_2  and  C_3 
REMARK    2  A    between atoms: C_3  and  O_6 
REMARK    3  A    between atoms: C_3  and  C_4 
REMARK    4  A    between atoms: C_7  and  O_6 
REMARK    5  A    between atoms: C_9  and  C_10 
REMARK    6  A    between atoms: N_15  and  C_14 
REMARK    7  A    between atoms: N_20  and  C_19 
REMARK       I    between atoms: C_22  and  N_20 
ROOT
ATOM      1  C   LIG d   1      -4.475  90.265 117.800  0.00  0.00     0.161 C 
ATOM      2  C   LIG d   1      -5.480  89.821 116.924  0.00  0.00     0.016 C 
ATOM      3  C   LIG d   1      -6.502  90.660 116.423  0.00  0.00     0.038 C 
ATOM      4  C   LIG d   1      -6.501  92.044 116.647  0.00  0.00     0.028 C 
ATOM      5  C   LIG d   1      -5.794  92.449 117.936  0.00  0.00    -0.047 C 
ATOM      6  C   LIG d   1      -4.393  91.797 117.966  0.00  0.00     0.091 C 
ENDROOT
BRANCH   1   7
ATOM      7  O   LIG d   1      -3.199  89.737 117.387  0.00  0.00    -0.368 OA
BRANCH   7   8
ATOM      8  C   LIG d   1      -2.852  88.430 117.907  0.00  0.00     0.119 C 
BRANCH   8   9
ATOM      9  C   LIG d   1      -3.208  88.418 119.406  0.00  0.00     0.028 C 
ATOM     10  C   LIG d   1      -2.824  87.096 120.090  0.00  0.00     0.006 C 
ENDBRANCH   8   9
BRANCH   8  11
ATOM     11  C   LIG d   1      -1.341  88.189 117.847  0.00  0.00     0.028 C 
ATOM     12  C   LIG d   1      -0.555  89.439 117.418  0.00  0.00     0.006 C 
ENDBRANCH   8  11
ENDBRANCH   7   8
ENDBRANCH   1   7
BRANCH   6  13
ATOM     13  N   LIG d   1      -3.667  92.074 119.233  0.00  0.00    -0.311 N 
ATOM     14  C   LIG d   1      -2.426  92.557 119.276  0.00  0.00     0.210 C 
ATOM     15  C   LIG d   1      -1.856  92.750 120.684  0.00  0.00     0.109 C 
ATOM     16  O   LIG d   1      -1.756  92.875 118.282  0.00  0.00    -0.276 OA
ATOM     17  H   LIG d   1      -4.148  91.874 120.088  0.00  0.00     0.149 HD
ENDBRANCH   6  13
BRANCH   5  18
ATOM     18  N   LIG d   1      -5.747  93.923 117.974  0.00  0.00     0.381 N 
ATOM     19  H   LIG d   1      -4.898  94.224 118.410  0.00  0.00    -0.090 HD
ATOM     20  H   LIG d   1      -6.519  94.259 118.523  0.00  0.00    -0.090 HD
ATOM     21  H   LIG d   1      -5.802  94.290 117.050  0.00  0.00    -0.090 HD
ENDBRANCH   5  18
BRANCH   3  22
ATOM     22  C   LIG d   1      -7.563  90.106 115.722  0.00  0.00     0.382 C 
ATOM     23  O   LIG d   1      -8.266  90.829 114.976  0.00  0.00    -0.241 OA
ATOM     24  O   LIG d   1      -7.853  88.903 115.861  0.00  0.00    -0.241 OA
ENDBRANCH   3  22
TORSDOF 7
ENDMDL
MODEL 9
REMARK VINA RESULT:      -4.9      2.613      3.606
REMARK  7 active torsions:
REMARK  status: ('A' for Active; 'I' for Inactive)
REMARK    1  A    between atoms: C_2  and  C_3 
REMARK    2  A    between atoms: C_3  and  O_6 
REMARK    3  A    between atoms: C_3  and  C_4 
REMARK    4  A    between atoms: C_7  and  O_6 
REMARK    5  A    between atoms: C_9  and  C_10 
REMARK    6  A    between atoms: N_15  and  C_14 
REMARK    7  A    between atoms: N_20  and  C_19 
REMARK       I    between atoms: C_22  and  N_20 
ROOT
ATOM      1  C   LIG d   1      -8.229  76.496 117.324  0.00  0.00     0.161 C 
ATOM      2  C   LIG d   1      -9.276  75.562 117.245  0.00  0.00     0.016 C 
ATOM      3  C   LIG d   1     -10.561  75.786 117.791  0.00  0.00     0.038 C 
ATOM      4  C   LIG d   1     -10.934  77.029 118.325  0.00  0.00     0.028 C 
ATOM      5  C   LIG d   1      -9.759  77.827 118.880  0.00  0.00    -0.047 C 
ATOM      6  C   LIG d   1      -8.650  77.900 117.804  0.00  0.00     0.091 C 
ENDROOT
BRANCH   1   7
ATOM      7  O   LIG d   1      -7.555  76.582 116.053  0.00  0.00    -0.368 OA
BRANCH   7   8
ATOM      8  C   LIG d   1      -6.197  76.079 116.016  0.00  0.00     0.119 C 
BRANCH   8   9
ATOM      9  C   LIG d   1      -6.190  74.833 115.110  0.00  0.00     0.028 C 
ATOM     10  C   LIG d   1      -6.124  73.523 115.913  0.00  0.00     0.006 C 
ENDBRANCH   8   9
BRANCH   8  11
ATOM     11  C   LIG d   1      -5.750  75.581 117.394  0.00  0.00     0.028 C 
ATOM     12  C   LIG d   1      -4.555  76.368 117.953  0.00  0.00     0.006 C 
ENDBRANCH   8  11
ENDBRANCH   7   8
ENDBRANCH   1   7
BRANCH   6  13
ATOM     13  N   LIG d   1      -7.430  78.592 118.295  0.00  0.00    -0.311 N 
ATOM     14  C   LIG d   1      -7.195  79.889 118.102  0.00  0.00     0.210 C 
ATOM     15  C   LIG d   1      -5.867  80.398 118.672  0.00  0.00     0.109 C 
ATOM     16  O   LIG d   1      -7.975  80.674 117.541  0.00  0.00    -0.276 OA
ATOM     17  H   LIG d   1      -6.758  78.038 118.788  0.00  0.00     0.149 HD
ENDBRANCH   6  13
BRANCH   5  18
ATOM     18  N   LIG d   1     -10.268  79.153 119.276  0.00  0.00     0.381 N 
ATOM     19  H   LIG d   1     -11.117  79.350 118.785  0.00  0.00    -0.090 HD
ATOM     20  H   LIG d   1      -9.590  79.850 119.026  0.00  0.00    -0.090 HD
ATOM     21  H   LIG d   1     -10.431  79.175 120.259  0.00  0.00    -0.090 HD
ENDBRANCH   5  18
BRANCH   3  22
ATOM     22  C   LIG d   1     -11.476  74.746 117.843  0.00  0.00     0.382 C 
ATOM     23  O   LIG d   1     -12.705  74.994 117.907  0.00  0.00    -0.241 OA
ATOM     24  O   LIG d   1     -11.088  73.563 117.871  0.00  0.00    -0.241 OA
ENDBRANCH   3  22
TORSDOF 7
ENDMDL
