MODEL 1
REMARK VINA RESULT:      -6.0      0.000      0.000
REMARK  7 active torsions:
REMARK  status: ('A' for Active; 'I' for Inactive)
REMARK    1  A    between atoms: C_2  and  C_3 
REMARK    2  A    between atoms: C_3  and  O_6 
REMARK    3  A    between atoms: C_3  and  C_4 
REMARK    4  A    between atoms: C_7  and  O_6 
REMARK    5  A    between atoms: C_9  and  C_10 
REMARK    6  A    between atoms: N_15  and  C_14 
REMARK    7  A    between atoms: N_20  and  C_19 
REMARK       I    between atoms: C_22  and  N_20 
ROOT
ATOM      1  C   LIG d   1      -8.149  75.241 117.732  0.00  0.00     0.161 C 
ATOM      2  C   LIG d   1      -9.503  75.412 118.065  0.00  0.00     0.016 C 
ATOM      3  C   LIG d   1     -10.050  76.644 118.493  0.00  0.00     0.038 C 
ATOM      4  C   LIG d   1      -9.305  77.832 118.473  0.00  0.00     0.028 C 
ATOM      5  C   LIG d   1      -7.805  77.610 118.627  0.00  0.00    -0.047 C 
ATOM      6  C   LIG d   1      -7.346  76.552 117.598  0.00  0.00     0.091 C 
ENDROOT
BRANCH   1   7
ATOM      7  O   LIG d   1      -8.037  74.459 116.527  0.00  0.00    -0.368 OA
BRANCH   7   8
ATOM      8  C   LIG d   1      -7.770  73.046 116.707  0.00  0.00     0.119 C 
BRANCH   8   9
ATOM      9  C   LIG d   1      -6.523  72.700 115.871  0.00  0.00     0.028 C 
ATOM     10  C   LIG d   1      -5.987  73.911 115.088  0.00  0.00     0.006 C 
ENDBRANCH   8   9
BRANCH   8  11
ATOM     11  C   LIG d   1      -8.898  72.188 116.127  0.00  0.00     0.028 C 
ATOM     12  C   LIG d   1      -9.092  70.866 116.886  0.00  0.00     0.006 C 
ENDBRANCH   8  11
ENDBRANCH   7   8
ENDBRANCH   1   7
BRANCH   6  13
ATOM     13  N   LIG d   1      -5.906  76.213 117.736  0.00  0.00    -0.311 N 
ATOM     14  C   LIG d   1      -4.940  76.823 117.052  0.00  0.00     0.210 C 
ATOM     15  C   LIG d   1      -3.524  76.307 117.331  0.00  0.00     0.109 C 
ATOM     16  O   LIG d   1      -5.117  77.765 116.264  0.00  0.00    -0.276 OA
ATOM     17  H   LIG d   1      -5.669  75.481 118.378  0.00  0.00     0.149 HD
ENDBRANCH   6  13
BRANCH   5  18
ATOM     18  N   LIG d   1      -7.140  78.915 118.450  0.00  0.00     0.381 N 
ATOM     19  H   LIG d   1      -6.624  79.147 119.275  0.00  0.00    -0.090 HD
ATOM     20  H   LIG d   1      -7.841  79.620 118.308  0.00  0.00    -0.090 HD
ATOM     21  H   LIG d   1      -6.528  78.882 117.665  0.00  0.00    -0.090 HD
ENDBRANCH   5  18
BRANCH   3  22
ATOM     22  C   LIG d   1     -11.345  76.686 118.986  0.00  0.00     0.382 C 
ATOM     23  O   LIG d   1     -11.565  77.147 120.132  0.00  0.00    -0.241 OA
ATOM     24  O   LIG d   1     -12.291  76.229 118.317  0.00  0.00    -0.241 OA
ENDBRANCH   3  22
TORSDOF 7
ENDMDL
MODEL 2
REMARK VINA RESULT:      -5.9      2.281      5.496
REMARK  7 active torsions:
REMARK  status: ('A' for Active; 'I' for Inactive)
REMARK    1  A    between atoms: C_2  and  C_3 
REMARK    2  A    between atoms: C_3  and  O_6 
REMARK    3  A    between atoms: C_3  and  C_4 
REMARK    4  A    between atoms: C_7  and  O_6 
REMARK    5  A    between atoms: C_9  and  C_10 
REMARK    6  A    between atoms: N_15  and  C_14 
REMARK    7  A    between atoms: N_20  and  C_19 
REMARK       I    between atoms: C_22  and  N_20 
ROOT
ATOM      1  C   LIG d   1      -5.806  74.859 116.298  0.00  0.00     0.161 C 
ATOM      2  C   LIG d   1      -4.579  74.428 115.769  0.00  0.00     0.016 C 
ATOM      3  C   LIG d   1      -3.366  75.134 115.940  0.00  0.00     0.038 C 
ATOM      4  C   LIG d   1      -3.271  76.248 116.787  0.00  0.00     0.028 C 
ATOM      5  C   LIG d   1      -4.583  77.010 116.936  0.00  0.00    -0.047 C 
ATOM      6  C   LIG d   1      -5.701  76.013 117.317  0.00  0.00     0.091 C 
ENDROOT
BRANCH   1   7
ATOM      7  O   LIG d   1      -6.508  73.741 116.878  0.00  0.00    -0.368 OA
BRANCH   7   8
ATOM      8  C   LIG d   1      -7.633  73.232 116.119  0.00  0.00     0.119 C 
BRANCH   8   9
ATOM      9  C   LIG d   1      -8.915  73.594 116.894  0.00  0.00     0.028 C 
ATOM     10  C   LIG d   1      -9.717  74.715 116.211  0.00  0.00     0.006 C 
ENDBRANCH   8   9
BRANCH   8  11
ATOM     11  C   LIG d   1      -7.615  71.702 116.056  0.00  0.00     0.028 C 
ATOM     12  C   LIG d   1      -8.833  71.063 116.743  0.00  0.00     0.006 C 
ENDBRANCH   8  11
ENDBRANCH   7   8
ENDBRANCH   1   7
BRANCH   6  13
ATOM     13  N   LIG d   1      -7.035  76.662 117.401  0.00  0.00    -0.311 N 
ATOM     14  C   LIG d   1      -7.554  77.128 118.536  0.00  0.00     0.210 C 
ATOM     15  C   LIG d   1      -8.951  77.742 118.404  0.00  0.00     0.109 C 
ATOM     16  O   LIG d   1      -6.976  77.120 119.633  0.00  0.00    -0.276 OA
ATOM     17  H   LIG d   1      -7.560  76.738 116.552  0.00  0.00     0.149 HD
ENDBRANCH   6  13
BRANCH   5  18
ATOM     18  N   LIG d   1      -4.376  78.061 117.950  0.00  0.00     0.381 N 
ATOM     19  H   LIG d   1      -3.819  78.798 117.564  0.00  0.00    -0.090 HD
ATOM     20  H   LIG d   1      -3.881  77.667 118.730  0.00  0.00    -0.090 HD
ATOM     21  H   LIG d   1      -5.254  78.422 118.251  0.00  0.00    -0.090 HD
ENDBRANCH   5  18
BRANCH   3  22
ATOM     22  C   LIG d   1      -2.240  74.749 115.228  0.00  0.00     0.382 C 
ATOM     23  O   LIG d   1      -1.476  73.869 115.692  0.00  0.00    -0.241 OA
ATOM     24  O   LIG d   1      -1.956  75.302 114.149  0.00  0.00    -0.241 OA
ENDBRANCH   3  22
TORSDOF 7
ENDMDL
MODEL 3
REMARK VINA RESULT:      -5.7     15.607     18.223
REMARK  7 active torsions:
REMARK  status: ('A' for Active; 'I' for Inactive)
REMARK    1  A    between atoms: C_2  and  C_3 
REMARK    2  A    between atoms: C_3  and  O_6 
REMARK    3  A    between atoms: C_3  and  C_4 
REMARK    4  A    between atoms: C_7  and  O_6 
REMARK    5  A    between atoms: C_9  and  C_10 
REMARK    6  A    between atoms: N_15  and  C_14 
REMARK    7  A    between atoms: N_20  and  C_19 
REMARK       I    between atoms: C_22  and  N_20 
ROOT
ATOM      1  C   LIG d   1      -6.614  93.097 118.231  0.00  0.00     0.161 C 
ATOM      2  C   LIG d   1      -7.179  92.055 117.476  0.00  0.00     0.016 C 
ATOM      3  C   LIG d   1      -6.410  91.090 116.785  0.00  0.00     0.038 C 
ATOM      4  C   LIG d   1      -5.017  91.012 116.927  0.00  0.00     0.028 C 
ATOM      5  C   LIG d   1      -4.367  92.347 117.273  0.00  0.00    -0.047 C 
ATOM      6  C   LIG d   1      -5.099  92.962 118.488  0.00  0.00     0.091 C 
ENDROOT
BRANCH   1   7
ATOM      7  O   LIG d   1      -7.324  93.237 119.478  0.00  0.00    -0.368 OA
BRANCH   7   8
ATOM      8  C   LIG d   1      -7.773  94.574 119.809  0.00  0.00     0.119 C 
BRANCH   8   9
ATOM      9  C   LIG d   1      -9.120  94.441 120.545  0.00  0.00     0.028 C 
ATOM     10  C   LIG d   1      -9.909  93.197 120.104  0.00  0.00     0.006 C 
ENDBRANCH   8   9
BRANCH   8  11
ATOM     11  C   LIG d   1      -8.078  95.388 118.548  0.00  0.00     0.028 C 
ATOM     12  C   LIG d   1      -7.503  96.812 118.604  0.00  0.00     0.006 C 
ENDBRANCH   8  11
ENDBRANCH   7   8
ENDBRANCH   1   7
BRANCH   6  13
ATOM     13  N   LIG d   1      -4.580  94.309 118.840  0.00  0.00    -0.311 N 
ATOM     14  C   LIG d   1      -3.637  94.515 119.758  0.00  0.00     0.210 C 
ATOM     15  C   LIG d   1      -3.262  95.984 119.981  0.00  0.00     0.109 C 
ATOM     16  O   LIG d   1      -3.054  93.619 120.385  0.00  0.00    -0.276 OA
ATOM     17  H   LIG d   1      -4.977  95.091 118.356  0.00  0.00     0.149 HD
ENDBRANCH   6  13
BRANCH   5  18
ATOM     18  N   LIG d   1      -2.936  92.094 117.527  0.00  0.00     0.381 N 
ATOM     19  H   LIG d   1      -2.479  92.950 117.770  0.00  0.00    -0.090 HD
ATOM     20  H   LIG d   1      -2.515  91.739 116.687  0.00  0.00    -0.090 HD
ATOM     21  H   LIG d   1      -2.833  91.433 118.265  0.00  0.00    -0.090 HD
ENDBRANCH   5  18
BRANCH   3  22
ATOM     22  C   LIG d   1      -7.033  90.214 115.909  0.00  0.00     0.382 C 
ATOM     23  O   LIG d   1      -8.180  89.777 116.170  0.00  0.00    -0.241 OA
ATOM     24  O   LIG d   1      -6.445  89.820 114.885  0.00  0.00    -0.241 OA
ENDBRANCH   3  22
TORSDOF 7
ENDMDL
MODEL 4
REMARK VINA RESULT:      -5.6      2.477      4.446
REMARK  7 active torsions:
REMARK  status: ('A' for Active; 'I' for Inactive)
REMARK    1  A    between atoms: C_2  and  C_3 
REMARK    2  A    between atoms: C_3  and  O_6 
REMARK    3  A    between atoms: C_3  and  C_4 
REMARK    4  A    between atoms: C_7  and  O_6 
REMARK    5  A    between atoms: C_9  and  C_10 
REMARK    6  A    between atoms: N_15  and  C_14 
REMARK    7  A    between atoms: N_20  and  C_19 
REMARK       I    between atoms: C_22  and  N_20 
ROOT
ATOM      1  C   LIG d   1      -6.829  74.917 117.706  0.00  0.00     0.161 C 
ATOM      2  C   LIG d   1      -6.946  73.625 117.168  0.00  0.00     0.016 C 
ATOM      3  C   LIG d   1      -8.164  73.090 116.688  0.00  0.00     0.038 C 
ATOM      4  C   LIG d   1      -9.323  73.871 116.573  0.00  0.00     0.028 C 
ATOM      5  C   LIG d   1      -9.378  75.023 117.570  0.00  0.00    -0.047 C 
ATOM      6  C   LIG d   1      -8.058  75.823 117.486  0.00  0.00     0.091 C 
ENDROOT
BRANCH   1   7
ATOM      7  O   LIG d   1      -5.640  75.553 117.195  0.00  0.00    -0.368 OA
BRANCH   7   8
ATOM      8  C   LIG d   1      -5.112  75.015 115.957  0.00  0.00     0.119 C 
BRANCH   8   9
ATOM      9  C   LIG d   1      -3.580  74.942 116.101  0.00  0.00     0.028 C 
ATOM     10  C   LIG d   1      -2.851  75.248 114.782  0.00  0.00     0.006 C 
ENDBRANCH   8   9
BRANCH   8  11
ATOM     11  C   LIG d   1      -5.364  75.967 114.784  0.00  0.00     0.028 C 
ATOM     12  C   LIG d   1      -6.691  75.684 114.062  0.00  0.00     0.006 C 
ENDBRANCH   8  11
ENDBRANCH   7   8
ENDBRANCH   1   7
BRANCH   6  13
ATOM     13  N   LIG d   1      -7.994  76.919 118.488  0.00  0.00    -0.311 N 
ATOM     14  C   LIG d   1      -7.460  78.113 118.237  0.00  0.00     0.210 C 
ATOM     15  C   LIG d   1      -7.478  79.091 119.416  0.00  0.00     0.109 C 
ATOM     16  O   LIG d   1      -7.002  78.465 117.140  0.00  0.00    -0.276 OA
ATOM     17  H   LIG d   1      -8.372  76.729 119.396  0.00  0.00     0.149 HD
ENDBRANCH   6  13
BRANCH   5  18
ATOM     18  N   LIG d   1     -10.567  75.835 117.248  0.00  0.00     0.381 N 
ATOM     19  H   LIG d   1     -11.377  75.435 117.680  0.00  0.00    -0.090 HD
ATOM     20  H   LIG d   1     -10.705  75.829 116.253  0.00  0.00    -0.090 HD
ATOM     21  H   LIG d   1     -10.439  76.770 117.568  0.00  0.00    -0.090 HD
ENDBRANCH   5  18
BRANCH   3  22
ATOM     22  C   LIG d   1      -8.239  71.746 116.353  0.00  0.00     0.382 C 
ATOM     23  O   LIG d   1      -7.380  71.240 115.592  0.00  0.00    -0.241 OA
ATOM     24  O   LIG d   1      -9.181  71.044 116.768  0.00  0.00    -0.241 OA
ENDBRANCH   3  22
TORSDOF 7
ENDMDL
MODEL 5
REMARK VINA RESULT:      -5.3      2.032      4.539
REMARK  7 active torsions:
REMARK  status: ('A' for Active; 'I' for Inactive)
REMARK    1  A    between atoms: C_2  and  C_3 
REMARK    2  A    between atoms: C_3  and  O_6 
REMARK    3  A    between atoms: C_3  and  C_4 
REMARK    4  A    between atoms: C_7  and  O_6 
REMARK    5  A    between atoms: C_9  and  C_10 
REMARK    6  A    between atoms: N_15  and  C_14 
REMARK    7  A    between atoms: N_20  and  C_19 
REMARK       I    between atoms: C_22  and  N_20 
ROOT
ATOM      1  C   LIG d   1      -7.567  77.104 117.245  0.00  0.00     0.161 C 
ATOM      2  C   LIG d   1      -8.692  77.323 118.057  0.00  0.00     0.016 C 
ATOM      3  C   LIG d   1      -9.763  76.406 118.166  0.00  0.00     0.038 C 
ATOM      4  C   LIG d   1      -9.710  75.131 117.583  0.00  0.00     0.028 C 
ATOM      5  C   LIG d   1      -8.822  75.068 116.345  0.00  0.00    -0.047 C 
ATOM      6  C   LIG d   1      -7.440  75.671 116.688  0.00  0.00     0.091 C 
ENDROOT
BRANCH   1   7
ATOM      7  O   LIG d   1      -6.370  77.472 117.959  0.00  0.00    -0.368 OA
BRANCH   7   8
ATOM      8  C   LIG d   1      -5.668  78.640 117.466  0.00  0.00     0.119 C 
BRANCH   8   9
ATOM      9  C   LIG d   1      -4.174  78.275 117.369  0.00  0.00     0.028 C 
ATOM     10  C   LIG d   1      -3.893  76.831 117.818  0.00  0.00     0.006 C 
ENDBRANCH   8   9
BRANCH   8  11
ATOM     11  C   LIG d   1      -5.739  79.796 118.468  0.00  0.00     0.028 C 
ATOM     12  C   LIG d   1      -6.828  80.822 118.119  0.00  0.00     0.006 C 
ENDBRANCH   8  11
ENDBRANCH   7   8
ENDBRANCH   1   7
BRANCH   6  13
ATOM     13  N   LIG d   1      -6.537  75.724 115.509  0.00  0.00    -0.311 N 
ATOM     14  C   LIG d   1      -5.682  74.752 115.196  0.00  0.00     0.210 C 
ATOM     15  C   LIG d   1      -4.829  75.018 113.951  0.00  0.00     0.109 C 
ATOM     16  O   LIG d   1      -5.572  73.681 115.811  0.00  0.00    -0.276 OA
ATOM     17  H   LIG d   1      -6.583  76.544 114.937  0.00  0.00     0.149 HD
ENDBRANCH   6  13
BRANCH   5  18
ATOM     18  N   LIG d   1      -8.748  73.657 115.922  0.00  0.00     0.381 N 
ATOM     19  H   LIG d   1      -8.966  73.059 116.694  0.00  0.00    -0.090 HD
ATOM     20  H   LIG d   1      -7.810  73.456 115.623  0.00  0.00    -0.090 HD
ATOM     21  H   LIG d   1      -9.385  73.492 115.174  0.00  0.00    -0.090 HD
ENDBRANCH   5  18
BRANCH   3  22
ATOM     22  C   LIG d   1     -10.921  76.778 118.833  0.00  0.00     0.382 C 
ATOM     23  O   LIG d   1     -12.040  76.419 118.394  0.00  0.00    -0.241 OA
ATOM     24  O   LIG d   1     -10.863  77.504 119.843  0.00  0.00    -0.241 OA
ENDBRANCH   3  22
TORSDOF 7
ENDMDL
MODEL 6
REMARK VINA RESULT:      -5.0      4.477      7.143
REMARK  7 active torsions:
REMARK  status: ('A' for Active; 'I' for Inactive)
REMARK    1  A    between atoms: C_2  and  C_3 
REMARK    2  A    between atoms: C_3  and  O_6 
REMARK    3  A    between atoms: C_3  and  C_4 
REMARK    4  A    between atoms: C_7  and  O_6 
REMARK    5  A    between atoms: C_9  and  C_10 
REMARK    6  A    between atoms: N_15  and  C_14 
REMARK    7  A    between atoms: N_20  and  C_19 
REMARK       I    between atoms: C_22  and  N_20 
ROOT
ATOM      1  C   LIG d   1      -3.100  77.048 116.015  0.00  0.00     0.161 C 
ATOM      2  C   LIG d   1      -3.250  78.169 115.182  0.00  0.00     0.016 C 
ATOM      3  C   LIG d   1      -2.241  78.625 114.303  0.00  0.00     0.038 C 
ATOM      4  C   LIG d   1      -1.063  77.896 114.085  0.00  0.00     0.028 C 
ATOM      5  C   LIG d   1      -0.655  77.034 115.275  0.00  0.00    -0.047 C 
ATOM      6  C   LIG d   1      -1.865  76.176 115.710  0.00  0.00     0.091 C 
ENDROOT
BRANCH   1   7
ATOM      7  O   LIG d   1      -4.299  76.248 115.979  0.00  0.00    -0.368 OA
BRANCH   7   8
ATOM      8  C   LIG d   1      -4.246  75.058 115.154  0.00  0.00     0.119 C 
BRANCH   8   9
ATOM      9  C   LIG d   1      -4.611  75.474 113.716  0.00  0.00     0.028 C 
ATOM     10  C   LIG d   1      -6.109  75.784 113.557  0.00  0.00     0.006 C 
ENDBRANCH   8   9
BRANCH   8  11
ATOM     11  C   LIG d   1      -5.319  74.046 115.568  0.00  0.00     0.028 C 
ATOM     12  C   LIG d   1      -6.181  74.537 116.741  0.00  0.00     0.006 C 
ENDBRANCH   8  11
ENDBRANCH   7   8
ENDBRANCH   1   7
BRANCH   6  13
ATOM     13  N   LIG d   1      -1.577  75.364 116.922  0.00  0.00    -0.311 N 
ATOM     14  C   LIG d   1      -1.049  74.142 116.877  0.00  0.00     0.210 C 
ATOM     15  C   LIG d   1      -0.852  73.472 118.241  0.00  0.00     0.109 C 
ATOM     16  O   LIG d   1      -0.694  73.562 115.839  0.00  0.00    -0.276 OA
ATOM     17  H   LIG d   1      -1.804  75.771 117.808  0.00  0.00     0.149 HD
ENDBRANCH   6  13
BRANCH   5  18
ATOM     18  N   LIG d   1       0.508  76.226 114.862  0.00  0.00     0.381 N 
ATOM     19  H   LIG d   1       1.351  76.744 115.012  0.00  0.00    -0.090 HD
ATOM     20  H   LIG d   1       0.432  76.024 113.880  0.00  0.00    -0.090 HD
ATOM     21  H   LIG d   1       0.536  75.377 115.382  0.00  0.00    -0.090 HD
ENDBRANCH   5  18
BRANCH   3  22
ATOM     22  C   LIG d   1      -2.390  79.844 113.659  0.00  0.00     0.382 C 
ATOM     23  O   LIG d   1      -1.395  80.590 113.491  0.00  0.00    -0.241 OA
ATOM     24  O   LIG d   1      -3.514  80.227 113.284  0.00  0.00    -0.241 OA
ENDBRANCH   3  22
TORSDOF 7
ENDMDL
MODEL 7
REMARK VINA RESULT:      -5.0      1.850      2.752
REMARK  7 active torsions:
REMARK  status: ('A' for Active; 'I' for Inactive)
REMARK    1  A    between atoms: C_2  and  C_3 
REMARK    2  A    between atoms: C_3  and  O_6 
REMARK    3  A    between atoms: C_3  and  C_4 
REMARK    4  A    between atoms: C_7  and  O_6 
REMARK    5  A    between atoms: C_9  and  C_10 
REMARK    6  A    between atoms: N_15  and  C_14 
REMARK    7  A    between atoms: N_20  and  C_19 
REMARK       I    between atoms: C_22  and  N_20 
ROOT
ATOM      1  C   LIG d   1      -6.917  76.794 118.230  0.00  0.00     0.161 C 
ATOM      2  C   LIG d   1      -8.297  76.897 118.471  0.00  0.00     0.016 C 
ATOM      3  C   LIG d   1      -8.984  78.130 118.550  0.00  0.00     0.038 C 
ATOM      4  C   LIG d   1      -8.359  79.348 118.242  0.00  0.00     0.028 C 
ATOM      5  C   LIG d   1      -6.854  79.335 118.488  0.00  0.00    -0.047 C 
ATOM      6  C   LIG d   1      -6.239  78.106 117.781  0.00  0.00     0.091 C 
ENDROOT
BRANCH   1   7
ATOM      7  O   LIG d   1      -6.665  75.747 117.273  0.00  0.00    -0.368 OA
BRANCH   7   8
ATOM      8  C   LIG d   1      -6.781  76.117 115.877  0.00  0.00     0.119 C 
BRANCH   8   9
ATOM      9  C   LIG d   1      -7.984  75.352 115.293  0.00  0.00     0.028 C 
ATOM     10  C   LIG d   1      -8.257  74.033 116.035  0.00  0.00     0.006 C 
ENDBRANCH   8   9
BRANCH   8  11
ATOM     11  C   LIG d   1      -5.568  75.641 115.071  0.00  0.00     0.028 C 
ATOM     12  C   LIG d   1      -5.830  75.621 113.557  0.00  0.00     0.006 C 
ENDBRANCH   8  11
ENDBRANCH   7   8
ENDBRANCH   1   7
BRANCH   6  13
ATOM     13  N   LIG d   1      -4.782  77.971 118.042  0.00  0.00    -0.311 N 
ATOM     14  C   LIG d   1      -3.845  78.444 117.223  0.00  0.00     0.210 C 
ATOM     15  C   LIG d   1      -2.403  78.180 117.670  0.00  0.00     0.109 C 
ATOM     16  O   LIG d   1      -4.069  79.084 116.185  0.00  0.00    -0.276 OA
ATOM     17  H   LIG d   1      -4.511  77.492 118.878  0.00  0.00     0.149 HD
ENDBRANCH   6  13
BRANCH   5  18
ATOM     18  N   LIG d   1      -6.311  80.616 117.997  0.00  0.00     0.381 N 
ATOM     19  H   LIG d   1      -6.348  80.638 116.997  0.00  0.00    -0.090 HD
ATOM     20  H   LIG d   1      -5.349  80.691 118.278  0.00  0.00    -0.090 HD
ATOM     21  H   LIG d   1      -6.835  81.375 118.373  0.00  0.00    -0.090 HD
ENDBRANCH   5  18
BRANCH   3  22
ATOM     22  C   LIG d   1     -10.302  78.157 118.980  0.00  0.00     0.382 C 
ATOM     23  O   LIG d   1     -10.676  79.030 119.799  0.00  0.00    -0.241 OA
ATOM     24  O   LIG d   1     -11.110  77.292 118.593  0.00  0.00    -0.241 OA
ENDBRANCH   3  22
TORSDOF 7
ENDMDL
MODEL 8
REMARK VINA RESULT:      -4.9      2.065      4.242
REMARK  7 active torsions:
REMARK  status: ('A' for Active; 'I' for Inactive)
REMARK    1  A    between atoms: C_2  and  C_3 
REMARK    2  A    between atoms: C_3  and  O_6 
REMARK    3  A    between atoms: C_3  and  C_4 
REMARK    4  A    between atoms: C_7  and  O_6 
REMARK    5  A    between atoms: C_9  and  C_10 
REMARK    6  A    between atoms: N_15  and  C_14 
REMARK    7  A    between atoms: N_20  and  C_19 
REMARK       I    between atoms: C_22  and  N_20 
ROOT
ATOM      1  C   LIG d   1      -7.580  77.235 117.088  0.00  0.00     0.161 C 
ATOM      2  C   LIG d   1      -8.707  77.399 117.910  0.00  0.00     0.016 C 
ATOM      3  C   LIG d   1      -9.696  76.404 118.082  0.00  0.00     0.038 C 
ATOM      4  C   LIG d   1      -9.546  75.111 117.559  0.00  0.00     0.028 C 
ATOM      5  C   LIG d   1      -8.673  75.060 116.309  0.00  0.00    -0.047 C 
ATOM      6  C   LIG d   1      -7.342  75.791 116.597  0.00  0.00     0.091 C 
ENDROOT
BRANCH   1   7
ATOM      7  O   LIG d   1      -6.407  77.735 117.761  0.00  0.00    -0.368 OA
BRANCH   7   8
ATOM      8  C   LIG d   1      -5.701  76.787 118.599  0.00  0.00     0.119 C 
BRANCH   8   9
ATOM      9  C   LIG d   1      -6.172  77.011 120.049  0.00  0.00     0.028 C 
ATOM     10  C   LIG d   1      -6.177  78.498 120.441  0.00  0.00     0.006 C 
ENDBRANCH   8   9
BRANCH   8  11
ATOM     11  C   LIG d   1      -4.196  77.070 118.613  0.00  0.00     0.028 C 
ATOM     12  C   LIG d   1      -3.436  76.305 117.518  0.00  0.00     0.006 C 
ENDBRANCH   8  11
ENDBRANCH   7   8
ENDBRANCH   1   7
BRANCH   6  13
ATOM     13  N   LIG d   1      -6.463  75.862 115.400  0.00  0.00    -0.311 N 
ATOM     14  C   LIG d   1      -5.594  74.908 115.072  0.00  0.00     0.210 C 
ATOM     15  C   LIG d   1      -4.772  75.189 113.810  0.00  0.00     0.109 C 
ATOM     16  O   LIG d   1      -5.447  73.841 115.688  0.00  0.00    -0.276 OA
ATOM     17  H   LIG d   1      -6.539  76.679 114.827  0.00  0.00     0.149 HD
ENDBRANCH   6  13
BRANCH   5  18
ATOM     18  N   LIG d   1      -8.488  73.641 115.951  0.00  0.00     0.381 N 
ATOM     19  H   LIG d   1      -8.590  73.525 114.963  0.00  0.00    -0.090 HD
ATOM     20  H   LIG d   1      -9.198  73.096 116.408  0.00  0.00    -0.090 HD
ATOM     21  H   LIG d   1      -7.586  73.332 116.239  0.00  0.00    -0.090 HD
ENDBRANCH   5  18
BRANCH   3  22
ATOM     22  C   LIG d   1     -10.871  76.711 118.752  0.00  0.00     0.382 C 
ATOM     23  O   LIG d   1     -11.971  76.304 118.307  0.00  0.00    -0.241 OA
ATOM     24  O   LIG d   1     -10.848  77.426 119.771  0.00  0.00    -0.241 OA
ENDBRANCH   3  22
TORSDOF 7
ENDMDL
MODEL 9
REMARK VINA RESULT:      -4.9      2.994      4.210
REMARK  7 active torsions:
REMARK  status: ('A' for Active; 'I' for Inactive)
REMARK    1  A    between atoms: C_2  and  C_3 
REMARK    2  A    between atoms: C_3  and  O_6 
REMARK    3  A    between atoms: C_3  and  C_4 
REMARK    4  A    between atoms: C_7  and  O_6 
REMARK    5  A    between atoms: C_9  and  C_10 
REMARK    6  A    between atoms: N_15  and  C_14 
REMARK    7  A    between atoms: N_20  and  C_19 
REMARK       I    between atoms: C_22  and  N_20 
ROOT
ATOM      1  C   LIG d   1      -5.493  76.446 117.474  0.00  0.00     0.161 C 
ATOM      2  C   LIG d   1      -6.415  77.483 117.692  0.00  0.00     0.016 C 
ATOM      3  C   LIG d   1      -6.063  78.852 117.680  0.00  0.00     0.038 C 
ATOM      4  C   LIG d   1      -4.785  79.286 117.297  0.00  0.00     0.028 C 
ATOM      5  C   LIG d   1      -3.692  78.256 117.560  0.00  0.00    -0.047 C 
ATOM      6  C   LIG d   1      -4.118  76.904 116.945  0.00  0.00     0.091 C 
ENDROOT
BRANCH   1   7
ATOM      7  O   LIG d   1      -6.066  75.460 116.592  0.00  0.00    -0.368 OA
BRANCH   7   8
ATOM      8  C   LIG d   1      -6.947  75.964 115.559  0.00  0.00     0.119 C 
BRANCH   8   9
ATOM      9  C   LIG d   1      -8.258  75.159 115.635  0.00  0.00     0.028 C 
ATOM     10  C   LIG d   1      -8.081  73.816 116.363  0.00  0.00     0.006 C 
ENDBRANCH   8   9
BRANCH   8  11
ATOM     11  C   LIG d   1      -6.383  75.689 114.162  0.00  0.00     0.028 C 
ATOM     12  C   LIG d   1      -5.167  74.749 114.184  0.00  0.00     0.006 C 
ENDBRANCH   8  11
ENDBRANCH   7   8
ENDBRANCH   1   7
BRANCH   6  13
ATOM     13  N   LIG d   1      -3.142  75.819 117.229  0.00  0.00    -0.311 N 
ATOM     14  C   LIG d   1      -2.171  75.467 116.388  0.00  0.00     0.210 C 
ATOM     15  C   LIG d   1      -1.288  74.311 116.867  0.00  0.00     0.109 C 
ATOM     16  O   LIG d   1      -1.938  76.023 115.304  0.00  0.00    -0.276 OA
ATOM     17  H   LIG d   1      -3.239  75.336 118.100  0.00  0.00     0.149 HD
ENDBRANCH   6  13
BRANCH   5  18
ATOM     18  N   LIG d   1      -2.438  78.783 116.989  0.00  0.00     0.381 N 
ATOM     19  H   LIG d   1      -2.641  79.530 116.356  0.00  0.00    -0.090 HD
ATOM     20  H   LIG d   1      -1.982  78.049 116.475  0.00  0.00    -0.090 HD
ATOM     21  H   LIG d   1      -1.841  79.108 117.718  0.00  0.00    -0.090 HD
ENDBRANCH   5  18
BRANCH   3  22
ATOM     22  C   LIG d   1      -6.985  79.802 118.094  0.00  0.00     0.382 C 
ATOM     23  O   LIG d   1      -7.815  79.521 118.992  0.00  0.00    -0.241 OA
ATOM     24  O   LIG d   1      -7.026  80.921 117.549  0.00  0.00    -0.241 OA
ENDBRANCH   3  22
TORSDOF 7
ENDMDL
