MODEL 1
REMARK VINA RESULT:      -5.1      0.000      0.000
REMARK  7 active torsions:
REMARK  status: ('A' for Active; 'I' for Inactive)
REMARK    1  A    between atoms: C_2  and  C_3 
REMARK    2  A    between atoms: C_3  and  O_6 
REMARK    3  A    between atoms: C_3  and  C_4 
REMARK    4  A    between atoms: C_7  and  O_6 
REMARK    5  A    between atoms: C_9  and  C_10 
REMARK    6  A    between atoms: N_15  and  C_14 
REMARK    7  A    between atoms: N_20  and  C_19 
REMARK       I    between atoms: C_22  and  N_20 
ROOT
ATOM      1  C   LIG d   1      -6.103  76.543 116.682  0.00  0.00     0.161 C 
ATOM      2  C   LIG d   1      -7.458  76.225 116.866  0.00  0.00     0.016 C 
ATOM      3  C   LIG d   1      -8.344  77.012 117.638  0.00  0.00     0.038 C 
ATOM      4  C   LIG d   1      -7.968  78.260 118.157  0.00  0.00     0.028 C 
ATOM      5  C   LIG d   1      -6.471  78.379 118.421  0.00  0.00    -0.047 C 
ATOM      6  C   LIG d   1      -5.701  77.959 117.149  0.00  0.00     0.091 C 
ENDROOT
BRANCH   1   7
ATOM      7  O   LIG d   1      -5.738  76.349 115.302  0.00  0.00    -0.368 OA
BRANCH   7   8
ATOM      8  C   LIG d   1      -4.850  75.237 115.027  0.00  0.00     0.119 C 
BRANCH   8   9
ATOM      9  C   LIG d   1      -5.692  74.120 114.382  0.00  0.00     0.028 C 
ATOM     10  C   LIG d   1      -6.167  73.077 115.408  0.00  0.00     0.006 C 
ENDBRANCH   8   9
BRANCH   8  11
ATOM     11  C   LIG d   1      -4.297  74.633 116.322  0.00  0.00     0.028 C 
ATOM     12  C   LIG d   1      -2.763  74.681 116.394  0.00  0.00     0.006 C 
ENDBRANCH   8  11
ENDBRANCH   7   8
ENDBRANCH   1   7
BRANCH   6  13
ATOM     13  N   LIG d   1      -4.228  77.965 117.348  0.00  0.00    -0.311 N 
ATOM     14  C   LIG d   1      -3.383  78.617 116.551  0.00  0.00     0.210 C 
ATOM     15  C   LIG d   1      -1.904  78.476 116.924  0.00  0.00     0.109 C 
ATOM     16  O   LIG d   1      -3.721  79.324 115.590  0.00  0.00    -0.276 OA
ATOM     17  H   LIG d   1      -3.871  77.442 118.124  0.00  0.00     0.149 HD
ENDBRANCH   6  13
BRANCH   5  18
ATOM     18  N   LIG d   1      -6.199  79.771 118.828  0.00  0.00     0.381 N 
ATOM     19  H   LIG d   1      -6.108  79.821 119.823  0.00  0.00    -0.090 HD
ATOM     20  H   LIG d   1      -6.975  80.347 118.553  0.00  0.00    -0.090 HD
ATOM     21  H   LIG d   1      -5.364  80.096 118.393  0.00  0.00    -0.090 HD
ENDBRANCH   5  18
BRANCH   3  22
ATOM     22  C   LIG d   1      -9.612  76.533 117.930  0.00  0.00     0.382 C 
ATOM     23  O   LIG d   1      -9.896  75.332 117.702  0.00  0.00    -0.241 OA
ATOM     24  O   LIG d   1     -10.489  77.296 118.378  0.00  0.00    -0.241 OA
ENDBRANCH   3  22
TORSDOF 7
ENDMDL
MODEL 2
REMARK VINA RESULT:      -5.0      0.635      1.737
REMARK  7 active torsions:
REMARK  status: ('A' for Active; 'I' for Inactive)
REMARK    1  A    between atoms: C_2  and  C_3 
REMARK    2  A    between atoms: C_3  and  O_6 
REMARK    3  A    between atoms: C_3  and  C_4 
REMARK    4  A    between atoms: C_7  and  O_6 
REMARK    5  A    between atoms: C_9  and  C_10 
REMARK    6  A    between atoms: N_15  and  C_14 
REMARK    7  A    between atoms: N_20  and  C_19 
REMARK       I    between atoms: C_22  and  N_20 
ROOT
ATOM      1  C   LIG d   1      -6.159  76.880 116.924  0.00  0.00     0.161 C 
ATOM      2  C   LIG d   1      -7.509  76.522 117.074  0.00  0.00     0.016 C 
ATOM      3  C   LIG d   1      -8.446  77.300 117.793  0.00  0.00     0.038 C 
ATOM      4  C   LIG d   1      -8.128  78.574 118.287  0.00  0.00     0.028 C 
ATOM      5  C   LIG d   1      -6.645  78.751 118.596  0.00  0.00    -0.047 C 
ATOM      6  C   LIG d   1      -5.820  78.321 117.362  0.00  0.00     0.091 C 
ENDROOT
BRANCH   1   7
ATOM      7  O   LIG d   1      -5.743  76.659 115.562  0.00  0.00    -0.368 OA
BRANCH   7   8
ATOM      8  C   LIG d   1      -4.863  75.529 115.340  0.00  0.00     0.119 C 
BRANCH   8   9
ATOM      9  C   LIG d   1      -3.693  76.019 114.466  0.00  0.00     0.028 C 
ATOM     10  C   LIG d   1      -2.323  75.698 115.086  0.00  0.00     0.006 C 
ENDBRANCH   8   9
BRANCH   8  11
ATOM     11  C   LIG d   1      -5.555  74.438 114.518  0.00  0.00     0.028 C 
ATOM     12  C   LIG d   1      -6.129  73.309 115.389  0.00  0.00     0.006 C 
ENDBRANCH   8  11
ENDBRANCH   7   8
ENDBRANCH   1   7
BRANCH   6  13
ATOM     13  N   LIG d   1      -4.356  78.382 117.609  0.00  0.00    -0.311 N 
ATOM     14  C   LIG d   1      -3.496  78.967 116.777  0.00  0.00     0.210 C 
ATOM     15  C   LIG d   1      -2.028  78.900 117.211  0.00  0.00     0.109 C 
ATOM     16  O   LIG d   1      -3.812  79.563 115.736  0.00  0.00    -0.276 OA
ATOM     17  H   LIG d   1      -4.016  77.951 118.446  0.00  0.00     0.149 HD
ENDBRANCH   6  13
BRANCH   5  18
ATOM     18  N   LIG d   1      -6.433  80.162 118.970  0.00  0.00     0.381 N 
ATOM     19  H   LIG d   1      -7.164  80.727 118.588  0.00  0.00    -0.090 HD
ATOM     20  H   LIG d   1      -5.558  80.472 118.584  0.00  0.00    -0.090 HD
ATOM     21  H   LIG d   1      -6.417  80.253 119.962  0.00  0.00    -0.090 HD
ENDBRANCH   5  18
BRANCH   3  22
ATOM     22  C   LIG d   1      -9.706  76.787 118.058  0.00  0.00     0.382 C 
ATOM     23  O   LIG d   1     -10.534  77.465 118.712  0.00  0.00    -0.241 OA
ATOM     24  O   LIG d   1     -10.010  75.637 117.689  0.00  0.00    -0.241 OA
ENDBRANCH   3  22
TORSDOF 7
ENDMDL
MODEL 3
REMARK VINA RESULT:      -4.9      3.547      5.568
REMARK  7 active torsions:
REMARK  status: ('A' for Active; 'I' for Inactive)
REMARK    1  A    between atoms: C_2  and  C_3 
REMARK    2  A    between atoms: C_3  and  O_6 
REMARK    3  A    between atoms: C_3  and  C_4 
REMARK    4  A    between atoms: C_7  and  O_6 
REMARK    5  A    between atoms: C_9  and  C_10 
REMARK    6  A    between atoms: N_15  and  C_14 
REMARK    7  A    between atoms: N_20  and  C_19 
REMARK       I    between atoms: C_22  and  N_20 
ROOT
ATOM      1  C   LIG d   1      -2.163  75.238 115.075  0.00  0.00     0.161 C 
ATOM      2  C   LIG d   1      -1.957  74.179 115.976  0.00  0.00     0.016 C 
ATOM      3  C   LIG d   1      -1.305  74.333 117.221  0.00  0.00     0.038 C 
ATOM      4  C   LIG d   1      -0.946  75.595 117.719  0.00  0.00     0.028 C 
ATOM      5  C   LIG d   1      -0.680  76.624 116.626  0.00  0.00    -0.047 C 
ATOM      6  C   LIG d   1      -1.878  76.641 115.650  0.00  0.00     0.091 C 
ENDROOT
BRANCH   1   7
ATOM      7  O   LIG d   1      -3.503  75.176 114.546  0.00  0.00    -0.368 OA
BRANCH   7   8
ATOM      8  C   LIG d   1      -4.543  74.817 115.488  0.00  0.00     0.119 C 
BRANCH   8   9
ATOM      9  C   LIG d   1      -5.600  73.999 114.721  0.00  0.00     0.028 C 
ATOM     10  C   LIG d   1      -6.307  72.967 115.616  0.00  0.00     0.006 C 
ENDBRANCH   8   9
BRANCH   8  11
ATOM     11  C   LIG d   1      -5.283  76.057 115.999  0.00  0.00     0.028 C 
ATOM     12  C   LIG d   1      -5.189  76.221 117.524  0.00  0.00     0.006 C 
ENDBRANCH   8  11
ENDBRANCH   7   8
ENDBRANCH   1   7
BRANCH   6  13
ATOM     13  N   LIG d   1      -1.662  77.561 114.503  0.00  0.00    -0.311 N 
ATOM     14  C   LIG d   1      -2.371  78.672 114.311  0.00  0.00     0.210 C 
ATOM     15  C   LIG d   1      -1.999  79.467 113.055  0.00  0.00     0.109 C 
ATOM     16  O   LIG d   1      -3.250  79.092 115.078  0.00  0.00    -0.276 OA
ATOM     17  H   LIG d   1      -0.946  77.313 113.848  0.00  0.00     0.149 HD
ENDBRANCH   6  13
BRANCH   5  18
ATOM     18  N   LIG d   1      -0.452  77.924 117.285  0.00  0.00     0.381 N 
ATOM     19  H   LIG d   1      -1.213  78.130 117.901  0.00  0.00    -0.090 HD
ATOM     20  H   LIG d   1      -0.413  78.642 116.583  0.00  0.00    -0.090 HD
ATOM     21  H   LIG d   1       0.402  77.903 117.797  0.00  0.00    -0.090 HD
ENDBRANCH   5  18
BRANCH   3  22
ATOM     22  C   LIG d   1      -0.969  73.212 117.964  0.00  0.00     0.382 C 
ATOM     23  O   LIG d   1      -1.146  73.207 119.206  0.00  0.00    -0.241 OA
ATOM     24  O   LIG d   1      -0.451  72.221 117.414  0.00  0.00    -0.241 OA
ENDBRANCH   3  22
TORSDOF 7
ENDMDL
MODEL 4
REMARK VINA RESULT:      -4.8      1.903      2.882
REMARK  7 active torsions:
REMARK  status: ('A' for Active; 'I' for Inactive)
REMARK    1  A    between atoms: C_2  and  C_3 
REMARK    2  A    between atoms: C_3  and  O_6 
REMARK    3  A    between atoms: C_3  and  C_4 
REMARK    4  A    between atoms: C_7  and  O_6 
REMARK    5  A    between atoms: C_9  and  C_10 
REMARK    6  A    between atoms: N_15  and  C_14 
REMARK    7  A    between atoms: N_20  and  C_19 
REMARK       I    between atoms: C_22  and  N_20 
ROOT
ATOM      1  C   LIG d   1      -6.570  76.932 117.296  0.00  0.00     0.161 C 
ATOM      2  C   LIG d   1      -7.287  75.724 117.286  0.00  0.00     0.016 C 
ATOM      3  C   LIG d   1      -8.626  75.611 117.724  0.00  0.00     0.038 C 
ATOM      4  C   LIG d   1      -9.393  76.736 118.062  0.00  0.00     0.028 C 
ATOM      5  C   LIG d   1      -8.559  77.908 118.567  0.00  0.00    -0.047 C 
ATOM      6  C   LIG d   1      -7.425  78.189 117.556  0.00  0.00     0.091 C 
ENDROOT
BRANCH   1   7
ATOM      7  O   LIG d   1      -5.833  77.072 116.064  0.00  0.00    -0.368 OA
BRANCH   7   8
ATOM      8  C   LIG d   1      -5.063  75.918 115.647  0.00  0.00     0.119 C 
BRANCH   8   9
ATOM      9  C   LIG d   1      -3.572  76.279 115.792  0.00  0.00     0.028 C 
ATOM     10  C   LIG d   1      -2.805  75.269 116.661  0.00  0.00     0.006 C 
ENDBRANCH   8   9
BRANCH   8  11
ATOM     11  C   LIG d   1      -5.266  75.622 114.158  0.00  0.00     0.028 C 
ATOM     12  C   LIG d   1      -5.222  74.119 113.838  0.00  0.00     0.006 C 
ENDBRANCH   8  11
ENDBRANCH   7   8
ENDBRANCH   1   7
BRANCH   6  13
ATOM     13  N   LIG d   1      -6.511  79.268 118.015  0.00  0.00    -0.311 N 
ATOM     14  C   LIG d   1      -6.675  80.551 117.700  0.00  0.00     0.210 C 
ATOM     15  C   LIG d   1      -5.607  81.496 118.261  0.00  0.00     0.109 C 
ATOM     16  O   LIG d   1      -7.621  81.002 117.038  0.00  0.00    -0.276 OA
ATOM     17  H   LIG d   1      -5.733  78.995 118.584  0.00  0.00     0.149 HD
ENDBRANCH   6  13
BRANCH   5  18
ATOM     18  N   LIG d   1      -9.468  79.055 118.750  0.00  0.00     0.381 N 
ATOM     19  H   LIG d   1     -10.157  78.835 119.441  0.00  0.00    -0.090 HD
ATOM     20  H   LIG d   1      -9.939  79.239 117.882  0.00  0.00    -0.090 HD
ATOM     21  H   LIG d   1      -8.951  79.859 119.032  0.00  0.00    -0.090 HD
ENDBRANCH   5  18
BRANCH   3  22
ATOM     22  C   LIG d   1      -9.200  74.356 117.866  0.00  0.00     0.382 C 
ATOM     23  O   LIG d   1      -8.483  73.369 118.160  0.00  0.00    -0.241 OA
ATOM     24  O   LIG d   1     -10.417  74.191 117.659  0.00  0.00    -0.241 OA
ENDBRANCH   3  22
TORSDOF 7
ENDMDL
MODEL 5
REMARK VINA RESULT:      -4.7      2.450      3.918
REMARK  7 active torsions:
REMARK  status: ('A' for Active; 'I' for Inactive)
REMARK    1  A    between atoms: C_2  and  C_3 
REMARK    2  A    between atoms: C_3  and  O_6 
REMARK    3  A    between atoms: C_3  and  C_4 
REMARK    4  A    between atoms: C_7  and  O_6 
REMARK    5  A    between atoms: C_9  and  C_10 
REMARK    6  A    between atoms: N_15  and  C_14 
REMARK    7  A    between atoms: N_20  and  C_19 
REMARK       I    between atoms: C_22  and  N_20 
ROOT
ATOM      1  C   LIG d   1      -4.118  75.103 116.913  0.00  0.00     0.161 C 
ATOM      2  C   LIG d   1      -5.234  75.936 117.099  0.00  0.00     0.016 C 
ATOM      3  C   LIG d   1      -5.206  77.334 116.887  0.00  0.00     0.038 C 
ATOM      4  C   LIG d   1      -4.092  77.976 116.324  0.00  0.00     0.028 C 
ATOM      5  C   LIG d   1      -2.776  77.255 116.595  0.00  0.00    -0.047 C 
ATOM      6  C   LIG d   1      -2.926  75.769 116.194  0.00  0.00     0.091 C 
ENDROOT
BRANCH   1   7
ATOM      7  O   LIG d   1      -4.514  73.903 116.220  0.00  0.00    -0.368 OA
BRANCH   7   8
ATOM      8  C   LIG d   1      -5.689  74.011 115.379  0.00  0.00     0.119 C 
BRANCH   8   9
ATOM      9  C   LIG d   1      -6.487  72.701 115.529  0.00  0.00     0.028 C 
ATOM     10  C   LIG d   1      -7.412  72.715 116.758  0.00  0.00     0.006 C 
ENDBRANCH   8   9
BRANCH   8  11
ATOM     11  C   LIG d   1      -5.308  74.087 113.898  0.00  0.00     0.028 C 
ATOM     12  C   LIG d   1      -5.480  75.497 113.310  0.00  0.00     0.006 C 
ENDBRANCH   8  11
ENDBRANCH   7   8
ENDBRANCH   1   7
BRANCH   6  13
ATOM     13  N   LIG d   1      -1.711  74.973 116.504  0.00  0.00    -0.311 N 
ATOM     14  C   LIG d   1      -1.089  74.206 115.610  0.00  0.00     0.210 C 
ATOM     15  C   LIG d   1       0.134  73.453 116.144  0.00  0.00     0.109 C 
ATOM     16  O   LIG d   1      -1.415  74.102 114.418  0.00  0.00    -0.276 OA
ATOM     17  H   LIG d   1      -1.360  75.023 117.440  0.00  0.00     0.149 HD
ENDBRANCH   6  13
BRANCH   5  18
ATOM     18  N   LIG d   1      -1.721  77.954 115.838  0.00  0.00     0.381 N 
ATOM     19  H   LIG d   1      -0.893  78.023 116.396  0.00  0.00    -0.090 HD
ATOM     20  H   LIG d   1      -2.036  78.884 115.625  0.00  0.00    -0.090 HD
ATOM     21  H   LIG d   1      -1.522  77.461 114.995  0.00  0.00    -0.090 HD
ENDBRANCH   5  18
BRANCH   3  22
ATOM     22  C   LIG d   1      -6.287  78.110 117.276  0.00  0.00     0.382 C 
ATOM     23  O   LIG d   1      -6.249  79.355 117.130  0.00  0.00    -0.241 OA
ATOM     24  O   LIG d   1      -7.281  77.584 117.812  0.00  0.00    -0.241 OA
ENDBRANCH   3  22
TORSDOF 7
ENDMDL
MODEL 6
REMARK VINA RESULT:      -4.6      2.626      4.614
REMARK  7 active torsions:
REMARK  status: ('A' for Active; 'I' for Inactive)
REMARK    1  A    between atoms: C_2  and  C_3 
REMARK    2  A    between atoms: C_3  and  O_6 
REMARK    3  A    between atoms: C_3  and  C_4 
REMARK    4  A    between atoms: C_7  and  O_6 
REMARK    5  A    between atoms: C_9  and  C_10 
REMARK    6  A    between atoms: N_15  and  C_14 
REMARK    7  A    between atoms: N_20  and  C_19 
REMARK       I    between atoms: C_22  and  N_20 
ROOT
ATOM      1  C   LIG d   1      -6.503  77.434 117.428  0.00  0.00     0.161 C 
ATOM      2  C   LIG d   1      -6.320  78.827 117.421  0.00  0.00     0.016 C 
ATOM      3  C   LIG d   1      -7.290  79.742 117.892  0.00  0.00     0.038 C 
ATOM      4  C   LIG d   1      -8.456  79.315 118.546  0.00  0.00     0.028 C 
ATOM      5  C   LIG d   1      -8.913  77.924 118.122  0.00  0.00    -0.047 C 
ATOM      6  C   LIG d   1      -7.721  76.946 118.239  0.00  0.00     0.091 C 
ENDROOT
BRANCH   1   7
ATOM      7  O   LIG d   1      -5.301  76.786 117.889  0.00  0.00    -0.368 OA
BRANCH   7   8
ATOM      8  C   LIG d   1      -4.800  75.709 117.061  0.00  0.00     0.119 C 
BRANCH   8   9
ATOM      9  C   LIG d   1      -3.262  75.802 117.061  0.00  0.00     0.028 C 
ATOM     10  C   LIG d   1      -2.594  74.478 117.470  0.00  0.00     0.006 C 
ENDBRANCH   8   9
BRANCH   8  11
ATOM     11  C   LIG d   1      -5.217  75.890 115.598  0.00  0.00     0.028 C 
ATOM     12  C   LIG d   1      -5.839  74.621 114.994  0.00  0.00     0.006 C 
ENDBRANCH   8  11
ENDBRANCH   7   8
ENDBRANCH   1   7
BRANCH   6  13
ATOM     13  N   LIG d   1      -8.060  75.580 117.763  0.00  0.00    -0.311 N 
ATOM     14  C   LIG d   1      -8.397  74.582 118.579  0.00  0.00     0.210 C 
ATOM     15  C   LIG d   1      -8.689  73.249 117.883  0.00  0.00     0.109 C 
ATOM     16  O   LIG d   1      -8.514  74.683 119.809  0.00  0.00    -0.276 OA
ATOM     17  H   LIG d   1      -8.021  75.418 116.776  0.00  0.00     0.149 HD
ENDBRANCH   6  13
BRANCH   5  18
ATOM     18  N   LIG d   1     -10.054  77.550 118.978  0.00  0.00     0.381 N 
ATOM     19  H   LIG d   1     -10.714  77.015 118.449  0.00  0.00    -0.090 HD
ATOM     20  H   LIG d   1     -10.510  78.387 119.297  0.00  0.00    -0.090 HD
ATOM     21  H   LIG d   1      -9.736  77.018 119.758  0.00  0.00    -0.090 HD
ENDBRANCH   5  18
BRANCH   3  22
ATOM     22  C   LIG d   1      -7.116  81.100 117.675  0.00  0.00     0.382 C 
ATOM     23  O   LIG d   1      -7.702  81.662 116.717  0.00  0.00    -0.241 OA
ATOM     24  O   LIG d   1      -6.347  81.762 118.397  0.00  0.00    -0.241 OA
ENDBRANCH   3  22
TORSDOF 7
ENDMDL
MODEL 7
REMARK VINA RESULT:      -4.4     14.373     17.493
REMARK  7 active torsions:
REMARK  status: ('A' for Active; 'I' for Inactive)
REMARK    1  A    between atoms: C_2  and  C_3 
REMARK    2  A    between atoms: C_3  and  O_6 
REMARK    3  A    between atoms: C_3  and  C_4 
REMARK    4  A    between atoms: C_7  and  O_6 
REMARK    5  A    between atoms: C_9  and  C_10 
REMARK    6  A    between atoms: N_15  and  C_14 
REMARK    7  A    between atoms: N_20  and  C_19 
REMARK       I    between atoms: C_22  and  N_20 
ROOT
ATOM      1  C   LIG d   1      11.105  75.979 115.476  0.00  0.00     0.161 C 
ATOM      2  C   LIG d   1       9.707  75.929 115.611  0.00  0.00     0.016 C 
ATOM      3  C   LIG d   1       8.858  77.023 115.326  0.00  0.00     0.038 C 
ATOM      4  C   LIG d   1       9.340  78.202 114.738  0.00  0.00     0.028 C 
ATOM      5  C   LIG d   1      10.805  78.482 115.054  0.00  0.00    -0.047 C 
ATOM      6  C   LIG d   1      11.638  77.220 114.730  0.00  0.00     0.091 C 
ENDROOT
BRANCH   1   7
ATOM      7  O   LIG d   1      11.578  74.773 114.844  0.00  0.00    -0.368 OA
BRANCH   7   8
ATOM      8  C   LIG d   1      11.721  73.617 115.705  0.00  0.00     0.119 C 
BRANCH   8   9
ATOM      9  C   LIG d   1      13.001  73.816 116.540  0.00  0.00     0.028 C 
ATOM     10  C   LIG d   1      14.248  74.015 115.663  0.00  0.00     0.006 C 
ENDBRANCH   8   9
BRANCH   8  11
ATOM     11  C   LIG d   1      11.962  72.342 114.891  0.00  0.00     0.028 C 
ATOM     12  C   LIG d   1      11.571  71.066 115.652  0.00  0.00     0.006 C 
ENDBRANCH   8  11
ENDBRANCH   7   8
ENDBRANCH   1   7
BRANCH   6  13
ATOM     13  N   LIG d   1      13.071  77.380 115.090  0.00  0.00    -0.311 N 
ATOM     14  C   LIG d   1      14.002  77.786 114.229  0.00  0.00     0.210 C 
ATOM     15  C   LIG d   1      15.422  77.863 114.800  0.00  0.00     0.109 C 
ATOM     16  O   LIG d   1      13.782  78.121 113.055  0.00  0.00    -0.276 OA
ATOM     17  H   LIG d   1      13.332  77.160 116.031  0.00  0.00     0.149 HD
ENDBRANCH   6  13
BRANCH   5  18
ATOM     18  N   LIG d   1      11.213  79.662 114.269  0.00  0.00     0.381 N 
ATOM     19  H   LIG d   1      11.014  80.496 114.783  0.00  0.00    -0.090 HD
ATOM     20  H   LIG d   1      10.684  79.683 113.415  0.00  0.00    -0.090 HD
ATOM     21  H   LIG d   1      12.187  79.614 114.063  0.00  0.00    -0.090 HD
ENDBRANCH   5  18
BRANCH   3  22
ATOM     22  C   LIG d   1       7.516  76.958 115.667  0.00  0.00     0.382 C 
ATOM     23  O   LIG d   1       7.163  76.364 116.714  0.00  0.00    -0.241 OA
ATOM     24  O   LIG d   1       6.649  77.447 114.918  0.00  0.00    -0.241 OA
ENDBRANCH   3  22
TORSDOF 7
ENDMDL
MODEL 8
REMARK VINA RESULT:      -4.4      2.700      4.688
REMARK  7 active torsions:
REMARK  status: ('A' for Active; 'I' for Inactive)
REMARK    1  A    between atoms: C_2  and  C_3 
REMARK    2  A    between atoms: C_3  and  O_6 
REMARK    3  A    between atoms: C_3  and  C_4 
REMARK    4  A    between atoms: C_7  and  O_6 
REMARK    5  A    between atoms: C_9  and  C_10 
REMARK    6  A    between atoms: N_15  and  C_14 
REMARK    7  A    between atoms: N_20  and  C_19 
REMARK       I    between atoms: C_22  and  N_20 
ROOT
ATOM      1  C   LIG d   1      -6.280  75.662 116.735  0.00  0.00     0.161 C 
ATOM      2  C   LIG d   1      -6.409  77.021 117.064  0.00  0.00     0.016 C 
ATOM      3  C   LIG d   1      -7.572  77.573 117.649  0.00  0.00     0.038 C 
ATOM      4  C   LIG d   1      -8.636  76.769 118.086  0.00  0.00     0.028 C 
ATOM      5  C   LIG d   1      -8.761  75.459 117.316  0.00  0.00    -0.047 C 
ATOM      6  C   LIG d   1      -7.387  74.750 117.306  0.00  0.00     0.091 C 
ENDROOT
BRANCH   1   7
ATOM      7  O   LIG d   1      -4.981  75.183 117.135  0.00  0.00    -0.368 OA
BRANCH   7   8
ATOM      8  C   LIG d   1      -4.229  74.462 116.128  0.00  0.00     0.119 C 
BRANCH   8   9
ATOM      9  C   LIG d   1      -2.739  74.550 116.512  0.00  0.00     0.028 C 
ATOM     10  C   LIG d   1      -2.488  75.528 117.671  0.00  0.00     0.006 C 
ENDBRANCH   8   9
BRANCH   8  11
ATOM     11  C   LIG d   1      -4.336  75.143 114.760  0.00  0.00     0.028 C 
ATOM     12  C   LIG d   1      -5.100  74.294 113.731  0.00  0.00     0.006 C 
ENDBRANCH   8  11
ENDBRANCH   7   8
ENDBRANCH   1   7
BRANCH   6  13
ATOM     13  N   LIG d   1      -7.400  73.501 116.502  0.00  0.00    -0.311 N 
ATOM     14  C   LIG d   1      -7.756  72.315 116.994  0.00  0.00     0.210 C 
ATOM     15  C   LIG d   1      -7.679  71.153 116.000  0.00  0.00     0.109 C 
ATOM     16  O   LIG d   1      -8.160  72.122 118.151  0.00  0.00    -0.276 OA
ATOM     17  H   LIG d   1      -7.117  73.572 115.544  0.00  0.00     0.149 HD
ENDBRANCH   6  13
BRANCH   5  18
ATOM     18  N   LIG d   1      -9.819  74.661 117.963  0.00  0.00     0.381 N 
ATOM     19  H   LIG d   1      -9.886  74.908 118.930  0.00  0.00    -0.090 HD
ATOM     20  H   LIG d   1      -9.574  73.688 117.903  0.00  0.00    -0.090 HD
ATOM     21  H   LIG d   1     -10.691  74.820 117.511  0.00  0.00    -0.090 HD
ENDBRANCH   5  18
BRANCH   3  22
ATOM     22  C   LIG d   1      -7.696  78.949 117.765  0.00  0.00     0.382 C 
ATOM     23  O   LIG d   1      -8.693  79.443 118.346  0.00  0.00    -0.241 OA
ATOM     24  O   LIG d   1      -6.846  79.705 117.258  0.00  0.00    -0.241 OA
ENDBRANCH   3  22
TORSDOF 7
ENDMDL
MODEL 9
REMARK VINA RESULT:      -4.3      3.008      5.085
REMARK  7 active torsions:
REMARK  status: ('A' for Active; 'I' for Inactive)
REMARK    1  A    between atoms: C_2  and  C_3 
REMARK    2  A    between atoms: C_3  and  O_6 
REMARK    3  A    between atoms: C_3  and  C_4 
REMARK    4  A    between atoms: C_7  and  O_6 
REMARK    5  A    between atoms: C_9  and  C_10 
REMARK    6  A    between atoms: N_15  and  C_14 
REMARK    7  A    between atoms: N_20  and  C_19 
REMARK       I    between atoms: C_22  and  N_20 
ROOT
ATOM      1  C   LIG d   1      -6.663  79.528 118.300  0.00  0.00     0.161 C 
ATOM      2  C   LIG d   1      -7.177  78.329 117.779  0.00  0.00     0.016 C 
ATOM      3  C   LIG d   1      -8.503  77.890 117.997  0.00  0.00     0.038 C 
ATOM      4  C   LIG d   1      -9.457  78.700 118.630  0.00  0.00     0.028 C 
ATOM      5  C   LIG d   1      -8.850  79.697 119.611  0.00  0.00    -0.047 C 
ATOM      6  C   LIG d   1      -7.721  80.477 118.900  0.00  0.00     0.091 C 
ENDROOT
BRANCH   1   7
ATOM      7  O   LIG d   1      -5.893  80.210 117.291  0.00  0.00    -0.368 OA
BRANCH   7   8
ATOM      8  C   LIG d   1      -4.505  80.470 117.616  0.00  0.00     0.119 C 
BRANCH   8   9
ATOM      9  C   LIG d   1      -4.294  81.995 117.556  0.00  0.00     0.028 C 
ATOM     10  C   LIG d   1      -3.428  82.421 116.359  0.00  0.00     0.006 C 
ENDBRANCH   8   9
BRANCH   8  11
ATOM     11  C   LIG d   1      -3.566  79.889 116.555  0.00  0.00     0.028 C 
ATOM     12  C   LIG d   1      -3.710  78.366 116.402  0.00  0.00     0.006 C 
ENDBRANCH   8  11
ENDBRANCH   7   8
ENDBRANCH   1   7
BRANCH   6  13
ATOM     13  N   LIG d   1      -7.018  81.415 119.814  0.00  0.00    -0.311 N 
ATOM     14  C   LIG d   1      -7.326  82.707 119.917  0.00  0.00     0.210 C 
ATOM     15  C   LIG d   1      -6.463  83.500 120.904  0.00  0.00     0.109 C 
ATOM     16  O   LIG d   1      -8.252  83.264 119.309  0.00  0.00    -0.276 OA
ATOM     17  H   LIG d   1      -6.273  81.040 120.367  0.00  0.00     0.149 HD
ENDBRANCH   6  13
BRANCH   5  18
ATOM     18  N   LIG d   1      -9.939  80.566 120.094  0.00  0.00     0.381 N 
ATOM     19  H   LIG d   1      -9.861  81.472 119.676  0.00  0.00    -0.090 HD
ATOM     20  H   LIG d   1      -9.855  80.671 121.090  0.00  0.00    -0.090 HD
ATOM     21  H   LIG d   1     -10.822  80.164 119.869  0.00  0.00    -0.090 HD
ENDBRANCH   5  18
BRANCH   3  22
ATOM     22  C   LIG d   1      -8.875  76.610 117.614  0.00  0.00     0.382 C 
ATOM     23  O   LIG d   1     -10.001  76.161 117.937  0.00  0.00    -0.241 OA
ATOM     24  O   LIG d   1      -8.082  75.883 116.986  0.00  0.00    -0.241 OA
ENDBRANCH   3  22
TORSDOF 7
ENDMDL
