MODEL 1
REMARK VINA RESULT:      -5.6      0.000      0.000
REMARK  7 active torsions:
REMARK  status: ('A' for Active; 'I' for Inactive)
REMARK    1  A    between atoms: C_2  and  C_3 
REMARK    2  A    between atoms: C_3  and  O_6 
REMARK    3  A    between atoms: C_3  and  C_4 
REMARK    4  A    between atoms: C_7  and  O_6 
REMARK    5  A    between atoms: C_9  and  C_10 
REMARK    6  A    between atoms: N_15  and  C_14 
REMARK    7  A    between atoms: N_20  and  C_19 
REMARK       I    between atoms: C_22  and  N_20 
ROOT
ATOM      1  C   LIG d   1      -5.966  91.968 117.915  0.00  0.00     0.161 C 
ATOM      2  C   LIG d   1      -6.828  91.957 116.805  0.00  0.00     0.016 C 
ATOM      3  C   LIG d   1      -6.589  91.191 115.642  0.00  0.00     0.038 C 
ATOM      4  C   LIG d   1      -5.542  90.260 115.569  0.00  0.00     0.028 C 
ATOM      5  C   LIG d   1      -4.359  90.608 116.467  0.00  0.00    -0.047 C 
ATOM      6  C   LIG d   1      -4.878  90.875 117.899  0.00  0.00     0.091 C 
ENDROOT
BRANCH   1   7
ATOM      7  O   LIG d   1      -6.735  91.891 119.132  0.00  0.00    -0.368 OA
BRANCH   7   8
ATOM      8  C   LIG d   1      -6.717  93.071 119.973  0.00  0.00     0.119 C 
BRANCH   8   9
ATOM      9  C   LIG d   1      -6.024  94.195 119.179  0.00  0.00     0.028 C 
ATOM     10  C   LIG d   1      -6.996  95.318 118.781  0.00  0.00     0.006 C 
ENDBRANCH   8   9
BRANCH   8  11
ATOM     11  C   LIG d   1      -5.846  92.856 121.214  0.00  0.00     0.028 C 
ATOM     12  C   LIG d   1      -4.628  93.792 121.258  0.00  0.00     0.006 C 
ENDBRANCH   8  11
ENDBRANCH   7   8
ENDBRANCH   1   7
BRANCH   6  13
ATOM     13  N   LIG d   1      -3.796  91.304 118.823  0.00  0.00    -0.311 N 
ATOM     14  C   LIG d   1      -3.031  90.451 119.503  0.00  0.00     0.210 C 
ATOM     15  C   LIG d   1      -1.988  91.104 120.415  0.00  0.00     0.109 C 
ATOM     16  O   LIG d   1      -3.096  89.216 119.412  0.00  0.00    -0.276 OA
ATOM     17  H   LIG d   1      -3.653  92.289 118.932  0.00  0.00     0.149 HD
ENDBRANCH   6  13
BRANCH   5  18
ATOM     18  N   LIG d   1      -3.403  89.487 116.398  0.00  0.00     0.381 N 
ATOM     19  H   LIG d   1      -2.698  89.685 115.716  0.00  0.00    -0.090 HD
ATOM     20  H   LIG d   1      -3.893  88.658 116.113  0.00  0.00    -0.090 HD
ATOM     21  H   LIG d   1      -2.982  89.343 117.290  0.00  0.00    -0.090 HD
ENDBRANCH   5  18
BRANCH   3  22
ATOM     22  C   LIG d   1      -7.380  91.381 114.519  0.00  0.00     0.382 C 
ATOM     23  O   LIG d   1      -6.863  91.788 113.450  0.00  0.00    -0.241 OA
ATOM     24  O   LIG d   1      -8.610  91.194 114.573  0.00  0.00    -0.241 OA
ENDBRANCH   3  22
TORSDOF 7
ENDMDL
MODEL 2
REMARK VINA RESULT:      -5.5     15.270     16.993
REMARK  7 active torsions:
REMARK  status: ('A' for Active; 'I' for Inactive)
REMARK    1  A    between atoms: C_2  and  C_3 
REMARK    2  A    between atoms: C_3  and  O_6 
REMARK    3  A    between atoms: C_3  and  C_4 
REMARK    4  A    between atoms: C_7  and  O_6 
REMARK    5  A    between atoms: C_9  and  C_10 
REMARK    6  A    between atoms: N_15  and  C_14 
REMARK    7  A    between atoms: N_20  and  C_19 
REMARK       I    between atoms: C_22  and  N_20 
ROOT
ATOM      1  C   LIG d   1      -8.208  75.438 118.167  0.00  0.00     0.161 C 
ATOM      2  C   LIG d   1      -9.314  76.194 118.591  0.00  0.00     0.016 C 
ATOM      3  C   LIG d   1      -9.335  77.607 118.597  0.00  0.00     0.038 C 
ATOM      4  C   LIG d   1      -8.299  78.367 118.034  0.00  0.00     0.028 C 
ATOM      5  C   LIG d   1      -6.948  77.659 118.056  0.00  0.00    -0.047 C 
ATOM      6  C   LIG d   1      -7.111  76.248 117.445  0.00  0.00     0.091 C 
ENDROOT
BRANCH   1   7
ATOM      7  O   LIG d   1      -8.651  74.345 117.339  0.00  0.00    -0.368 OA
BRANCH   7   8
ATOM      8  C   LIG d   1      -9.005  73.123 118.032  0.00  0.00     0.119 C 
BRANCH   8   9
ATOM      9  C   LIG d   1      -8.087  72.006 117.498  0.00  0.00     0.028 C 
ATOM     10  C   LIG d   1      -7.358  72.413 116.206  0.00  0.00     0.006 C 
ENDBRANCH   8   9
BRANCH   8  11
ATOM     11  C   LIG d   1     -10.429  72.678 117.685  0.00  0.00     0.028 C 
ATOM     12  C   LIG d   1     -10.574  71.150 117.609  0.00  0.00     0.006 C 
ENDBRANCH   8  11
ENDBRANCH   7   8
ENDBRANCH   1   7
BRANCH   6  13
ATOM     13  N   LIG d   1      -5.855  75.456 117.504  0.00  0.00    -0.311 N 
ATOM     14  C   LIG d   1      -5.004  75.354 116.485  0.00  0.00     0.210 C 
ATOM     15  C   LIG d   1      -3.780  74.472 116.751  0.00  0.00     0.109 C 
ATOM     16  O   LIG d   1      -5.130  75.935 115.397  0.00  0.00    -0.276 OA
ATOM     17  H   LIG d   1      -5.658  74.977 118.361  0.00  0.00     0.149 HD
ENDBRANCH   6  13
BRANCH   5  18
ATOM     18  N   LIG d   1      -5.991  78.502 117.316  0.00  0.00     0.381 N 
ATOM     19  H   LIG d   1      -5.627  79.212 117.920  0.00  0.00    -0.090 HD
ATOM     20  H   LIG d   1      -6.472  78.951 116.556  0.00  0.00    -0.090 HD
ATOM     21  H   LIG d   1      -5.246  77.943 116.962  0.00  0.00    -0.090 HD
ENDBRANCH   5  18
BRANCH   3  22
ATOM     22  C   LIG d   1     -10.384  78.276 119.209  0.00  0.00     0.382 C 
ATOM     23  O   LIG d   1     -10.638  79.465 118.896  0.00  0.00    -0.241 OA
ATOM     24  O   LIG d   1     -11.053  77.721 120.101  0.00  0.00    -0.241 OA
ENDBRANCH   3  22
TORSDOF 7
ENDMDL
MODEL 3
REMARK VINA RESULT:      -5.3     15.805     17.635
REMARK  7 active torsions:
REMARK  status: ('A' for Active; 'I' for Inactive)
REMARK    1  A    between atoms: C_2  and  C_3 
REMARK    2  A    between atoms: C_3  and  O_6 
REMARK    3  A    between atoms: C_3  and  C_4 
REMARK    4  A    between atoms: C_7  and  O_6 
REMARK    5  A    between atoms: C_9  and  C_10 
REMARK    6  A    between atoms: N_15  and  C_14 
REMARK    7  A    between atoms: N_20  and  C_19 
REMARK       I    between atoms: C_22  and  N_20 
ROOT
ATOM      1  C   LIG d   1      -7.994  74.834 117.395  0.00  0.00     0.161 C 
ATOM      2  C   LIG d   1      -6.843  74.370 116.736  0.00  0.00     0.016 C 
ATOM      3  C   LIG d   1      -5.626  75.088 116.697  0.00  0.00     0.038 C 
ATOM      4  C   LIG d   1      -5.430  76.257 117.447  0.00  0.00     0.028 C 
ATOM      5  C   LIG d   1      -6.719  77.025 117.719  0.00  0.00    -0.047 C 
ATOM      6  C   LIG d   1      -7.766  76.054 118.312  0.00  0.00     0.091 C 
ENDROOT
BRANCH   1   7
ATOM      7  O   LIG d   1      -8.601  73.757 118.136  0.00  0.00    -0.368 OA
BRANCH   7   8
ATOM      8  C   LIG d   1      -9.177  72.687 117.348  0.00  0.00     0.119 C 
BRANCH   8   9
ATOM      9  C   LIG d   1     -10.687  72.648 117.655  0.00  0.00     0.028 C 
ATOM     10  C   LIG d   1     -11.350  74.028 117.516  0.00  0.00     0.006 C 
ENDBRANCH   8   9
BRANCH   8  11
ATOM     11  C   LIG d   1      -8.639  71.321 117.785  0.00  0.00     0.028 C 
ATOM     12  C   LIG d   1      -9.698  70.210 117.706  0.00  0.00     0.006 C 
ENDBRANCH   8  11
ENDBRANCH   7   8
ENDBRANCH   1   7
BRANCH   6  13
ATOM     13  N   LIG d   1      -9.084  76.706 118.529  0.00  0.00    -0.311 N 
ATOM     14  C   LIG d   1      -9.437  77.280 119.678  0.00  0.00     0.210 C 
ATOM     15  C   LIG d   1     -10.849  77.876 119.696  0.00  0.00     0.109 C 
ATOM     16  O   LIG d   1      -8.704  77.382 120.673  0.00  0.00    -0.276 OA
ATOM     17  H   LIG d   1      -9.729  76.696 117.764  0.00  0.00     0.149 HD
ENDBRANCH   6  13
BRANCH   5  18
ATOM     18  N   LIG d   1      -6.390  78.143 118.623  0.00  0.00     0.381 N 
ATOM     19  H   LIG d   1      -7.148  78.796 118.645  0.00  0.00    -0.090 HD
ATOM     20  H   LIG d   1      -5.576  78.616 118.272  0.00  0.00    -0.090 HD
ATOM     21  H   LIG d   1      -6.212  77.798 119.541  0.00  0.00    -0.090 HD
ENDBRANCH   5  18
BRANCH   3  22
ATOM     22  C   LIG d   1      -4.601  74.657 115.868  0.00  0.00     0.382 C 
ATOM     23  O   LIG d   1      -4.733  74.720 114.622  0.00  0.00    -0.241 OA
ATOM     24  O   LIG d   1      -3.563  74.166 116.351  0.00  0.00    -0.241 OA
ENDBRANCH   3  22
TORSDOF 7
ENDMDL
MODEL 4
REMARK VINA RESULT:      -5.2     13.611     15.475
REMARK  7 active torsions:
REMARK  status: ('A' for Active; 'I' for Inactive)
REMARK    1  A    between atoms: C_2  and  C_3 
REMARK    2  A    between atoms: C_3  and  O_6 
REMARK    3  A    between atoms: C_3  and  C_4 
REMARK    4  A    between atoms: C_7  and  O_6 
REMARK    5  A    between atoms: C_9  and  C_10 
REMARK    6  A    between atoms: N_15  and  C_14 
REMARK    7  A    between atoms: N_20  and  C_19 
REMARK       I    between atoms: C_22  and  N_20 
ROOT
ATOM      1  C   LIG d   1      -7.386  76.787 117.623  0.00  0.00     0.161 C 
ATOM      2  C   LIG d   1      -8.645  77.199 118.090  0.00  0.00     0.016 C 
ATOM      3  C   LIG d   1      -8.958  78.543 118.399  0.00  0.00     0.038 C 
ATOM      4  C   LIG d   1      -8.073  79.594 118.116  0.00  0.00     0.028 C 
ATOM      5  C   LIG d   1      -6.609  79.170 118.117  0.00  0.00    -0.047 C 
ATOM      6  C   LIG d   1      -6.444  77.934 117.203  0.00  0.00     0.091 C 
ENDROOT
BRANCH   1   7
ATOM      7  O   LIG d   1      -7.550  75.851 116.539  0.00  0.00    -0.368 OA
BRANCH   7   8
ATOM      8  C   LIG d   1      -6.876  74.577 116.690  0.00  0.00     0.119 C 
BRANCH   8   9
ATOM      9  C   LIG d   1      -6.266  74.211 115.323  0.00  0.00     0.028 C 
ATOM     10  C   LIG d   1      -6.237  75.406 114.355  0.00  0.00     0.006 C 
ENDBRANCH   8   9
BRANCH   8  11
ATOM     11  C   LIG d   1      -7.871  73.455 117.003  0.00  0.00     0.028 C 
ATOM     12  C   LIG d   1      -7.523  72.136 116.294  0.00  0.00     0.006 C 
ENDBRANCH   8  11
ENDBRANCH   7   8
ENDBRANCH   1   7
BRANCH   6  13
ATOM     13  N   LIG d   1      -5.056  77.403 117.213  0.00  0.00    -0.311 N 
ATOM     14  C   LIG d   1      -4.119  77.785 116.347  0.00  0.00     0.210 C 
ATOM     15  C   LIG d   1      -2.760  77.098 116.520  0.00  0.00     0.109 C 
ATOM     16  O   LIG d   1      -4.274  78.650 115.472  0.00  0.00    -0.276 OA
ATOM     17  H   LIG d   1      -4.834  76.719 117.910  0.00  0.00     0.149 HD
ENDBRANCH   6  13
BRANCH   5  18
ATOM     18  N   LIG d   1      -5.809  80.328 117.673  0.00  0.00     0.381 N 
ATOM     19  H   LIG d   1      -5.455  80.820 118.469  0.00  0.00    -0.090 HD
ATOM     20  H   LIG d   1      -6.401  80.952 117.154  0.00  0.00    -0.090 HD
ATOM     21  H   LIG d   1      -5.054  80.021 117.101  0.00  0.00    -0.090 HD
ENDBRANCH   5  18
BRANCH   3  22
ATOM     22  C   LIG d   1     -10.154  78.841 119.035  0.00  0.00     0.382 C 
ATOM     23  O   LIG d   1     -10.318  79.966 119.565  0.00  0.00    -0.241 OA
ATOM     24  O   LIG d   1     -11.054  77.984 119.123  0.00  0.00    -0.241 OA
ENDBRANCH   3  22
TORSDOF 7
ENDMDL
MODEL 5
REMARK VINA RESULT:      -5.2     14.710     16.554
REMARK  7 active torsions:
REMARK  status: ('A' for Active; 'I' for Inactive)
REMARK    1  A    between atoms: C_2  and  C_3 
REMARK    2  A    between atoms: C_3  and  O_6 
REMARK    3  A    between atoms: C_3  and  C_4 
REMARK    4  A    between atoms: C_7  and  O_6 
REMARK    5  A    between atoms: C_9  and  C_10 
REMARK    6  A    between atoms: N_15  and  C_14 
REMARK    7  A    between atoms: N_20  and  C_19 
REMARK       I    between atoms: C_22  and  N_20 
ROOT
ATOM      1  C   LIG d   1      -7.096  76.009 117.895  0.00  0.00     0.161 C 
ATOM      2  C   LIG d   1      -7.810  74.810 117.731  0.00  0.00     0.016 C 
ATOM      3  C   LIG d   1      -9.206  74.703 117.925  0.00  0.00     0.038 C 
ATOM      4  C   LIG d   1     -10.012  75.828 118.152  0.00  0.00     0.028 C 
ATOM      5  C   LIG d   1      -9.270  76.979 118.824  0.00  0.00    -0.047 C 
ATOM      6  C   LIG d   1      -7.974  77.271 118.034  0.00  0.00     0.091 C 
ENDROOT
BRANCH   1   7
ATOM      7  O   LIG d   1      -6.155  76.170 116.816  0.00  0.00    -0.368 OA
BRANCH   7   8
ATOM      8  C   LIG d   1      -5.426  74.982 116.423  0.00  0.00     0.119 C 
BRANCH   8   9
ATOM      9  C   LIG d   1      -3.932  75.243 116.699  0.00  0.00     0.028 C 
ATOM     10  C   LIG d   1      -3.201  73.988 117.204  0.00  0.00     0.006 C 
ENDBRANCH   8   9
BRANCH   8  11
ATOM     11  C   LIG d   1      -5.524  74.741 114.914  0.00  0.00     0.028 C 
ATOM     12  C   LIG d   1      -6.517  75.688 114.222  0.00  0.00     0.006 C 
ENDBRANCH   8  11
ENDBRANCH   7   8
ENDBRANCH   1   7
BRANCH   6  13
ATOM     13  N   LIG d   1      -7.147  78.327 118.673  0.00  0.00    -0.311 N 
ATOM     14  C   LIG d   1      -7.220  79.615 118.343  0.00  0.00     0.210 C 
ATOM     15  C   LIG d   1      -6.264  80.534 119.110  0.00  0.00     0.109 C 
ATOM     16  O   LIG d   1      -8.008  80.088 117.510  0.00  0.00    -0.276 OA
ATOM     17  H   LIG d   1      -6.502  78.035 119.381  0.00  0.00     0.149 HD
ENDBRANCH   6  13
BRANCH   5  18
ATOM     18  N   LIG d   1     -10.189  78.132 118.875  0.00  0.00     0.381 N 
ATOM     19  H   LIG d   1     -11.028  77.875 119.355  0.00  0.00    -0.090 HD
ATOM     20  H   LIG d   1     -10.430  78.397 117.937  0.00  0.00    -0.090 HD
ATOM     21  H   LIG d   1      -9.751  78.896 119.342  0.00  0.00    -0.090 HD
ENDBRANCH   5  18
BRANCH   3  22
ATOM     22  C   LIG d   1      -9.804  73.452 117.932  0.00  0.00     0.382 C 
ATOM     23  O   LIG d   1      -9.125  72.434 118.208  0.00  0.00    -0.241 OA
ATOM     24  O   LIG d   1     -11.004  73.324 117.624  0.00  0.00    -0.241 OA
ENDBRANCH   3  22
TORSDOF 7
ENDMDL
MODEL 6
REMARK VINA RESULT:      -5.2      2.253      4.243
REMARK  7 active torsions:
REMARK  status: ('A' for Active; 'I' for Inactive)
REMARK    1  A    between atoms: C_2  and  C_3 
REMARK    2  A    between atoms: C_3  and  O_6 
REMARK    3  A    between atoms: C_3  and  C_4 
REMARK    4  A    between atoms: C_7  and  O_6 
REMARK    5  A    between atoms: C_9  and  C_10 
REMARK    6  A    between atoms: N_15  and  C_14 
REMARK    7  A    between atoms: N_20  and  C_19 
REMARK       I    between atoms: C_22  and  N_20 
ROOT
ATOM      1  C   LIG d   1      -4.198  91.099 117.802  0.00  0.00     0.161 C 
ATOM      2  C   LIG d   1      -4.770  90.364 116.751  0.00  0.00     0.016 C 
ATOM      3  C   LIG d   1      -6.011  90.691 116.158  0.00  0.00     0.038 C 
ATOM      4  C   LIG d   1      -6.697  91.873 116.476  0.00  0.00     0.028 C 
ATOM      5  C   LIG d   1      -6.408  92.380 117.885  0.00  0.00    -0.047 C 
ATOM      6  C   LIG d   1      -4.877  92.455 118.087  0.00  0.00     0.091 C 
ENDROOT
BRANCH   1   7
ATOM      7  O   LIG d   1      -2.790  91.286 117.557  0.00  0.00    -0.368 OA
BRANCH   7   8
ATOM      8  C   LIG d   1      -1.889  90.623 118.479  0.00  0.00     0.119 C 
BRANCH   8   9
ATOM      9  C   LIG d   1      -1.017  89.654 117.657  0.00  0.00     0.028 C 
ATOM     10  C   LIG d   1      -1.604  88.234 117.609  0.00  0.00     0.006 C 
ENDBRANCH   8   9
BRANCH   8  11
ATOM     11  C   LIG d   1      -2.655  89.740 119.468  0.00  0.00     0.028 C 
ATOM     12  C   LIG d   1      -2.401  90.127 120.933  0.00  0.00     0.006 C 
ENDBRANCH   8  11
ENDBRANCH   7   8
ENDBRANCH   1   7
BRANCH   6  13
ATOM     13  N   LIG d   1      -4.507  92.862 119.468  0.00  0.00    -0.311 N 
ATOM     14  C   LIG d   1      -3.587  93.786 119.738  0.00  0.00     0.210 C 
ATOM     15  C   LIG d   1      -3.344  94.040 121.229  0.00  0.00     0.109 C 
ATOM     16  O   LIG d   1      -2.972  94.443 118.884  0.00  0.00    -0.276 OA
ATOM     17  H   LIG d   1      -4.980  92.402 120.221  0.00  0.00     0.149 HD
ENDBRANCH   6  13
BRANCH   5  18
ATOM     18  N   LIG d   1      -7.076  93.686 118.035  0.00  0.00     0.381 N 
ATOM     19  H   LIG d   1      -7.306  93.841 118.996  0.00  0.00    -0.090 HD
ATOM     20  H   LIG d   1      -7.929  93.678 117.503  0.00  0.00    -0.090 HD
ATOM     21  H   LIG d   1      -6.479  94.414 117.707  0.00  0.00    -0.090 HD
ENDBRANCH   5  18
BRANCH   3  22
ATOM     22  C   LIG d   1      -6.599  89.810 115.263  0.00  0.00     0.382 C 
ATOM     23  O   LIG d   1      -7.787  89.445 115.431  0.00  0.00    -0.241 OA
ATOM     24  O   LIG d   1      -5.942  89.341 114.315  0.00  0.00    -0.241 OA
ENDBRANCH   3  22
TORSDOF 7
ENDMDL
MODEL 7
REMARK VINA RESULT:      -5.1     13.747     15.450
REMARK  7 active torsions:
REMARK  status: ('A' for Active; 'I' for Inactive)
REMARK    1  A    between atoms: C_2  and  C_3 
REMARK    2  A    between atoms: C_3  and  O_6 
REMARK    3  A    between atoms: C_3  and  C_4 
REMARK    4  A    between atoms: C_7  and  O_6 
REMARK    5  A    between atoms: C_9  and  C_10 
REMARK    6  A    between atoms: N_15  and  C_14 
REMARK    7  A    between atoms: N_20  and  C_19 
REMARK       I    between atoms: C_22  and  N_20 
ROOT
ATOM      1  C   LIG d   1      -2.935  77.437 116.750  0.00  0.00     0.161 C 
ATOM      2  C   LIG d   1      -3.008  78.414 115.743  0.00  0.00     0.016 C 
ATOM      3  C   LIG d   1      -2.285  78.338 114.531  0.00  0.00     0.038 C 
ATOM      4  C   LIG d   1      -1.550  77.197 114.176  0.00  0.00     0.028 C 
ATOM      5  C   LIG d   1      -1.042  76.407 115.378  0.00  0.00    -0.047 C 
ATOM      6  C   LIG d   1      -2.225  76.132 116.334  0.00  0.00     0.091 C 
ENDROOT
BRANCH   1   7
ATOM      7  O   LIG d   1      -4.256  77.152 117.251  0.00  0.00    -0.368 OA
BRANCH   7   8
ATOM      8  C   LIG d   1      -5.361  77.618 116.437  0.00  0.00     0.119 C 
BRANCH   8   9
ATOM      9  C   LIG d   1      -6.331  78.376 117.364  0.00  0.00     0.028 C 
ATOM     10  C   LIG d   1      -7.528  77.511 117.794  0.00  0.00     0.006 C 
ENDBRANCH   8   9
BRANCH   8  11
ATOM     11  C   LIG d   1      -6.170  76.446 115.873  0.00  0.00     0.028 C 
ATOM     12  C   LIG d   1      -5.572  75.877 114.577  0.00  0.00     0.006 C 
ENDBRANCH   8  11
ENDBRANCH   7   8
ENDBRANCH   1   7
BRANCH   6  13
ATOM     13  N   LIG d   1      -1.800  75.436 117.576  0.00  0.00    -0.311 N 
ATOM     14  C   LIG d   1      -1.755  74.110 117.695  0.00  0.00     0.210 C 
ATOM     15  C   LIG d   1      -1.308  73.599 119.068  0.00  0.00     0.109 C 
ATOM     16  O   LIG d   1      -2.013  73.309 116.784  0.00  0.00    -0.276 OA
ATOM     17  H   LIG d   1      -1.543  76.010 118.356  0.00  0.00     0.149 HD
ENDBRANCH   6  13
BRANCH   5  18
ATOM     18  N   LIG d   1      -0.414  75.174 114.866  0.00  0.00     0.381 N 
ATOM     19  H   LIG d   1      -0.620  74.410 115.478  0.00  0.00    -0.090 HD
ATOM     20  H   LIG d   1       0.583  75.302 114.845  0.00  0.00    -0.090 HD
ATOM     21  H   LIG d   1      -0.750  74.975 113.950  0.00  0.00    -0.090 HD
ENDBRANCH   5  18
BRANCH   3  22
ATOM     22  C   LIG d   1      -2.260  79.429 113.675  0.00  0.00     0.382 C 
ATOM     23  O   LIG d   1      -3.327  80.023 113.386  0.00  0.00    -0.241 OA
ATOM     24  O   LIG d   1      -1.191  79.800 113.155  0.00  0.00    -0.241 OA
ENDBRANCH   3  22
TORSDOF 7
ENDMDL
MODEL 8
REMARK VINA RESULT:      -5.0      2.179      5.476
REMARK  7 active torsions:
REMARK  status: ('A' for Active; 'I' for Inactive)
REMARK    1  A    between atoms: C_2  and  C_3 
REMARK    2  A    between atoms: C_3  and  O_6 
REMARK    3  A    between atoms: C_3  and  C_4 
REMARK    4  A    between atoms: C_7  and  O_6 
REMARK    5  A    between atoms: C_9  and  C_10 
REMARK    6  A    between atoms: N_15  and  C_14 
REMARK    7  A    between atoms: N_20  and  C_19 
REMARK       I    between atoms: C_22  and  N_20 
ROOT
ATOM      1  C   LIG d   1      -4.800  90.989 117.166  0.00  0.00     0.161 C 
ATOM      2  C   LIG d   1      -3.760  90.055 117.024  0.00  0.00     0.016 C 
ATOM      3  C   LIG d   1      -2.560  90.107 117.771  0.00  0.00     0.038 C 
ATOM      4  C   LIG d   1      -2.382  91.015 118.824  0.00  0.00     0.028 C 
ATOM      5  C   LIG d   1      -3.196  92.295 118.666  0.00  0.00    -0.047 C 
ATOM      6  C   LIG d   1      -4.670  91.921 118.388  0.00  0.00     0.091 C 
ENDROOT
BRANCH   1   7
ATOM      7  O   LIG d   1      -6.069  90.306 117.188  0.00  0.00    -0.368 OA
BRANCH   7   8
ATOM      8  C   LIG d   1      -7.037  90.727 116.196  0.00  0.00     0.119 C 
BRANCH   8   9
ATOM      9  C   LIG d   1      -7.527  89.464 115.462  0.00  0.00     0.028 C 
ATOM     10  C   LIG d   1      -8.970  89.090 115.837  0.00  0.00     0.006 C 
ENDBRANCH   8   9
BRANCH   8  11
ATOM     11  C   LIG d   1      -6.385  91.597 115.116  0.00  0.00     0.028 C 
ATOM     12  C   LIG d   1      -6.874  91.253 113.700  0.00  0.00     0.006 C 
ENDBRANCH   8  11
ENDBRANCH   7   8
ENDBRANCH   1   7
BRANCH   6  13
ATOM     13  N   LIG d   1      -5.520  93.114 118.137  0.00  0.00    -0.311 N 
ATOM     14  C   LIG d   1      -6.260  93.698 119.077  0.00  0.00     0.210 C 
ATOM     15  C   LIG d   1      -7.077  94.903 118.601  0.00  0.00     0.109 C 
ATOM     16  O   LIG d   1      -6.292  93.353 120.268  0.00  0.00    -0.276 OA
ATOM     17  H   LIG d   1      -5.528  93.479 117.205  0.00  0.00     0.149 HD
ENDBRANCH   6  13
BRANCH   5  18
ATOM     18  N   LIG d   1      -3.022  93.089 119.897  0.00  0.00     0.381 N 
ATOM     19  H   LIG d   1      -3.640  92.751 120.608  0.00  0.00    -0.090 HD
ATOM     20  H   LIG d   1      -3.260  94.046 119.702  0.00  0.00    -0.090 HD
ATOM     21  H   LIG d   1      -2.079  93.030 120.210  0.00  0.00    -0.090 HD
ENDBRANCH   5  18
BRANCH   3  22
ATOM     22  C   LIG d   1      -1.507  89.268 117.438  0.00  0.00     0.382 C 
ATOM     23  O   LIG d   1      -1.611  88.031 117.617  0.00  0.00    -0.241 OA
ATOM     24  O   LIG d   1      -0.439  89.738 117.003  0.00  0.00    -0.241 OA
ENDBRANCH   3  22
TORSDOF 7
ENDMDL
MODEL 9
REMARK VINA RESULT:      -5.0     15.009     17.359
REMARK  7 active torsions:
REMARK  status: ('A' for Active; 'I' for Inactive)
REMARK    1  A    between atoms: C_2  and  C_3 
REMARK    2  A    between atoms: C_3  and  O_6 
REMARK    3  A    between atoms: C_3  and  C_4 
REMARK    4  A    between atoms: C_7  and  O_6 
REMARK    5  A    between atoms: C_9  and  C_10 
REMARK    6  A    between atoms: N_15  and  C_14 
REMARK    7  A    between atoms: N_20  and  C_19 
REMARK       I    between atoms: C_22  and  N_20 
ROOT
ATOM      1  C   LIG d   1      -3.142  74.890 116.633  0.00  0.00     0.161 C 
ATOM      2  C   LIG d   1      -2.806  74.070 117.723  0.00  0.00     0.016 C 
ATOM      3  C   LIG d   1      -1.528  74.066 118.329  0.00  0.00     0.038 C 
ATOM      4  C   LIG d   1      -0.539  74.997 117.980  0.00  0.00     0.028 C 
ATOM      5  C   LIG d   1      -0.663  75.504 116.547  0.00  0.00    -0.047 C 
ATOM      6  C   LIG d   1      -2.110  75.992 116.310  0.00  0.00     0.091 C 
ENDROOT
BRANCH   1   7
ATOM      7  O   LIG d   1      -4.445  75.470 116.841  0.00  0.00    -0.368 OA
BRANCH   7   8
ATOM      8  C   LIG d   1      -5.575  74.654 116.445  0.00  0.00     0.119 C 
BRANCH   8   9
ATOM      9  C   LIG d   1      -5.575  74.578 114.906  0.00  0.00     0.028 C 
ATOM     10  C   LIG d   1      -6.471  75.650 114.265  0.00  0.00     0.006 C 
ENDBRANCH   8   9
BRANCH   8  11
ATOM     11  C   LIG d   1      -6.902  75.323 116.818  0.00  0.00     0.028 C 
ATOM     12  C   LIG d   1      -6.745  76.389 117.914  0.00  0.00     0.006 C 
ENDBRANCH   8  11
ENDBRANCH   7   8
ENDBRANCH   1   7
BRANCH   6  13
ATOM     13  N   LIG d   1      -2.340  76.426 114.908  0.00  0.00    -0.311 N 
ATOM     14  C   LIG d   1      -2.938  77.571 114.583  0.00  0.00     0.210 C 
ATOM     15  C   LIG d   1      -3.092  77.816 113.079  0.00  0.00     0.109 C 
ATOM     16  O   LIG d   1      -3.326  78.422 115.398  0.00  0.00    -0.276 OA
ATOM     17  H   LIG d   1      -2.028  75.810 114.183  0.00  0.00     0.149 HD
ENDBRANCH   6  13
BRANCH   5  18
ATOM     18  N   LIG d   1       0.343  76.567 116.362  0.00  0.00     0.381 N 
ATOM     19  H   LIG d   1       1.262  76.184 116.457  0.00  0.00    -0.090 HD
ATOM     20  H   LIG d   1       0.216  77.263 117.076  0.00  0.00    -0.090 HD
ATOM     21  H   LIG d   1       0.239  76.981 115.462  0.00  0.00    -0.090 HD
ENDBRANCH   5  18
BRANCH   3  22
ATOM     22  C   LIG d   1      -1.217  73.096 119.269  0.00  0.00     0.382 C 
ATOM     23  O   LIG d   1      -0.315  73.309 120.115  0.00  0.00    -0.241 OA
ATOM     24  O   LIG d   1      -1.795  71.993 119.254  0.00  0.00    -0.241 OA
ENDBRANCH   3  22
TORSDOF 7
ENDMDL
