MODEL 1
REMARK VINA RESULT:      -5.5      0.000      0.000
REMARK  7 active torsions:
REMARK  status: ('A' for Active; 'I' for Inactive)
REMARK    1  A    between atoms: C_2  and  C_3 
REMARK    2  A    between atoms: C_3  and  O_6 
REMARK    3  A    between atoms: C_3  and  C_4 
REMARK    4  A    between atoms: C_7  and  O_6 
REMARK    5  A    between atoms: C_9  and  C_10 
REMARK    6  A    between atoms: N_15  and  C_14 
REMARK    7  A    between atoms: N_20  and  C_19 
REMARK       I    between atoms: C_22  and  N_20 
ROOT
ATOM      1  C   LIG d   1      -5.790  92.319 118.830  0.00  0.00     0.161 C 
ATOM      2  C   LIG d   1      -6.081  91.355 117.849  0.00  0.00     0.016 C 
ATOM      3  C   LIG d   1      -6.818  91.637 116.676  0.00  0.00     0.038 C 
ATOM      4  C   LIG d   1      -7.189  92.944 116.330  0.00  0.00     0.028 C 
ATOM      5  C   LIG d   1      -7.357  93.866 117.533  0.00  0.00    -0.047 C 
ATOM      6  C   LIG d   1      -6.091  93.774 118.415  0.00  0.00     0.091 C 
ENDROOT
BRANCH   1   7
ATOM      7  O   LIG d   1      -4.418  92.190 119.249  0.00  0.00    -0.368 OA
BRANCH   7   8
ATOM      8  C   LIG d   1      -3.659  91.123 118.630  0.00  0.00     0.119 C 
BRANCH   8   9
ATOM      9  C   LIG d   1      -3.130  90.216 119.758  0.00  0.00     0.028 C 
ATOM     10  C   LIG d   1      -2.369  88.993 119.220  0.00  0.00     0.006 C 
ENDBRANCH   8   9
BRANCH   8  11
ATOM     11  C   LIG d   1      -2.411  91.662 117.925  0.00  0.00     0.028 C 
ATOM     12  C   LIG d   1      -2.536  93.147 117.546  0.00  0.00     0.006 C 
ENDBRANCH   8  11
ENDBRANCH   7   8
ENDBRANCH   1   7
BRANCH   6  13
ATOM     13  N   LIG d   1      -6.206  94.581 119.658  0.00  0.00    -0.311 N 
ATOM     14  C   LIG d   1      -5.740  95.823 119.771  0.00  0.00     0.210 C 
ATOM     15  C   LIG d   1      -5.945  96.468 121.146  0.00  0.00     0.109 C 
ATOM     16  O   LIG d   1      -5.204  96.464 118.855  0.00  0.00    -0.276 OA
ATOM     17  H   LIG d   1      -6.655  94.149 120.442  0.00  0.00     0.149 HD
ENDBRANCH   6  13
BRANCH   5  18
ATOM     18  N   LIG d   1      -7.607  95.226 117.021  0.00  0.00     0.381 N 
ATOM     19  H   LIG d   1      -6.851  95.511 116.432  0.00  0.00    -0.090 HD
ATOM     20  H   LIG d   1      -7.658  95.862 117.798  0.00  0.00    -0.090 HD
ATOM     21  H   LIG d   1      -8.462  95.246 116.509  0.00  0.00    -0.090 HD
ENDBRANCH   5  18
BRANCH   3  22
ATOM     22  C   LIG d   1      -7.228  90.596 115.856  0.00  0.00     0.382 C 
ATOM     23  O   LIG d   1      -8.286  89.973 116.114  0.00  0.00    -0.241 OA
ATOM     24  O   LIG d   1      -6.529  90.244 114.887  0.00  0.00    -0.241 OA
ENDBRANCH   3  22
TORSDOF 7
ENDMDL
MODEL 2
REMARK VINA RESULT:      -4.9     12.800     14.945
REMARK  7 active torsions:
REMARK  status: ('A' for Active; 'I' for Inactive)
REMARK    1  A    between atoms: C_2  and  C_3 
REMARK    2  A    between atoms: C_3  and  O_6 
REMARK    3  A    between atoms: C_3  and  C_4 
REMARK    4  A    between atoms: C_7  and  O_6 
REMARK    5  A    between atoms: C_9  and  C_10 
REMARK    6  A    between atoms: N_15  and  C_14 
REMARK    7  A    between atoms: N_20  and  C_19 
REMARK       I    between atoms: C_22  and  N_20 
ROOT
ATOM      1  C   LIG d   1      -6.262  77.929 117.291  0.00  0.00     0.161 C 
ATOM      2  C   LIG d   1      -7.624  77.680 117.525  0.00  0.00     0.016 C 
ATOM      3  C   LIG d   1      -8.513  78.648 118.048  0.00  0.00     0.038 C 
ATOM      4  C   LIG d   1      -8.130  79.984 118.232  0.00  0.00     0.028 C 
ATOM      5  C   LIG d   1      -6.636  80.157 118.486  0.00  0.00    -0.047 C 
ATOM      6  C   LIG d   1      -5.851  79.414 117.381  0.00  0.00     0.091 C 
ENDROOT
BRANCH   1   7
ATOM      7  O   LIG d   1      -5.877  77.379 116.015  0.00  0.00    -0.368 OA
BRANCH   7   8
ATOM      8  C   LIG d   1      -5.300  76.051 116.042  0.00  0.00     0.119 C 
BRANCH   8   9
ATOM      9  C   LIG d   1      -3.786  76.199 115.793  0.00  0.00     0.028 C 
ATOM     10  C   LIG d   1      -2.963  76.075 117.086  0.00  0.00     0.006 C 
ENDBRANCH   8   9
BRANCH   8  11
ATOM     11  C   LIG d   1      -5.819  75.194 114.884  0.00  0.00     0.028 C 
ATOM     12  C   LIG d   1      -5.751  73.687 115.180  0.00  0.00     0.006 C 
ENDBRANCH   8  11
ENDBRANCH   7   8
ENDBRANCH   1   7
BRANCH   6  13
ATOM     13  N   LIG d   1      -4.381  79.461 117.600  0.00  0.00    -0.311 N 
ATOM     14  C   LIG d   1      -3.508  79.778 116.646  0.00  0.00     0.210 C 
ATOM     15  C   LIG d   1      -2.038  79.747 117.079  0.00  0.00     0.109 C 
ATOM     16  O   LIG d   1      -3.812  80.113 115.491  0.00  0.00    -0.276 OA
ATOM     17  H   LIG d   1      -4.050  79.234 118.517  0.00  0.00     0.149 HD
ENDBRANCH   6  13
BRANCH   5  18
ATOM     18  N   LIG d   1      -6.354  81.604 118.521  0.00  0.00     0.381 N 
ATOM     19  H   LIG d   1      -6.638  81.983 119.403  0.00  0.00    -0.090 HD
ATOM     20  H   LIG d   1      -6.885  82.057 117.798  0.00  0.00    -0.090 HD
ATOM     21  H   LIG d   1      -5.381  81.766 118.380  0.00  0.00    -0.090 HD
ENDBRANCH   5  18
BRANCH   3  22
ATOM     22  C   LIG d   1      -9.791  78.270 118.431  0.00  0.00     0.382 C 
ATOM     23  O   LIG d   1     -10.268  77.180 118.035  0.00  0.00    -0.241 OA
ATOM     24  O   LIG d   1     -10.490  79.027 119.131  0.00  0.00    -0.241 OA
ENDBRANCH   3  22
TORSDOF 7
ENDMDL
MODEL 3
REMARK VINA RESULT:      -4.5     28.925     31.150
REMARK  7 active torsions:
REMARK  status: ('A' for Active; 'I' for Inactive)
REMARK    1  A    between atoms: C_2  and  C_3 
REMARK    2  A    between atoms: C_3  and  O_6 
REMARK    3  A    between atoms: C_3  and  C_4 
REMARK    4  A    between atoms: C_7  and  O_6 
REMARK    5  A    between atoms: C_9  and  C_10 
REMARK    6  A    between atoms: N_15  and  C_14 
REMARK    7  A    between atoms: N_20  and  C_19 
REMARK       I    between atoms: C_22  and  N_20 
ROOT
ATOM      1  C   LIG d   1     -16.786  63.538 116.166  0.00  0.00     0.161 C 
ATOM      2  C   LIG d   1     -17.041  62.275 115.606  0.00  0.00     0.016 C 
ATOM      3  C   LIG d   1     -17.552  62.092 114.300  0.00  0.00     0.038 C 
ATOM      4  C   LIG d   1     -17.702  63.162 113.406  0.00  0.00     0.028 C 
ATOM      5  C   LIG d   1     -17.936  64.501 114.097  0.00  0.00    -0.047 C 
ATOM      6  C   LIG d   1     -16.839  64.712 115.166  0.00  0.00     0.091 C 
ENDROOT
BRANCH   1   7
ATOM      7  O   LIG d   1     -15.519  63.521 116.852  0.00  0.00    -0.368 OA
BRANCH   7   8
ATOM      8  C   LIG d   1     -15.549  63.886 118.254  0.00  0.00     0.119 C 
BRANCH   8   9
ATOM      9  C   LIG d   1     -14.540  62.983 118.989  0.00  0.00     0.028 C 
ATOM     10  C   LIG d   1     -15.076  61.557 119.203  0.00  0.00     0.006 C 
ENDBRANCH   8   9
BRANCH   8  11
ATOM     11  C   LIG d   1     -16.909  63.571 118.883  0.00  0.00     0.028 C 
ATOM     12  C   LIG d   1     -17.452  64.727 119.738  0.00  0.00     0.006 C 
ENDBRANCH   8  11
ENDBRANCH   7   8
ENDBRANCH   1   7
BRANCH   6  13
ATOM     13  N   LIG d   1     -17.041  65.959 115.947  0.00  0.00    -0.311 N 
ATOM     14  C   LIG d   1     -16.057  66.806 116.245  0.00  0.00     0.210 C 
ATOM     15  C   LIG d   1     -16.479  68.021 117.077  0.00  0.00     0.109 C 
ATOM     16  O   LIG d   1     -14.881  66.682 115.873  0.00  0.00    -0.276 OA
ATOM     17  H   LIG d   1     -17.971  66.154 116.263  0.00  0.00     0.149 HD
ENDBRANCH   6  13
BRANCH   5  18
ATOM     18  N   LIG d   1     -17.937  65.546 113.056  0.00  0.00     0.381 N 
ATOM     19  H   LIG d   1     -17.370  65.255 112.284  0.00  0.00    -0.090 HD
ATOM     20  H   LIG d   1     -17.542  66.387 113.439  0.00  0.00    -0.090 HD
ATOM     21  H   LIG d   1     -18.868  65.718 112.747  0.00  0.00    -0.090 HD
ENDBRANCH   5  18
BRANCH   3  22
ATOM     22  C   LIG d   1     -17.957  60.830 113.892  0.00  0.00     0.382 C 
ATOM     23  O   LIG d   1     -19.175  60.593 113.703  0.00  0.00    -0.241 OA
ATOM     24  O   LIG d   1     -17.125  59.914 113.753  0.00  0.00    -0.241 OA
ENDBRANCH   3  22
TORSDOF 7
ENDMDL
MODEL 4
REMARK VINA RESULT:      -4.5     11.332     13.377
REMARK  7 active torsions:
REMARK  status: ('A' for Active; 'I' for Inactive)
REMARK    1  A    between atoms: C_2  and  C_3 
REMARK    2  A    between atoms: C_3  and  O_6 
REMARK    3  A    between atoms: C_3  and  C_4 
REMARK    4  A    between atoms: C_7  and  O_6 
REMARK    5  A    between atoms: C_9  and  C_10 
REMARK    6  A    between atoms: N_15  and  C_14 
REMARK    7  A    between atoms: N_20  and  C_19 
REMARK       I    between atoms: C_22  and  N_20 
ROOT
ATOM      1  C   LIG d   1     -16.294  97.864 116.956  0.00  0.00     0.161 C 
ATOM      2  C   LIG d   1     -15.141  98.643 116.759  0.00  0.00     0.016 C 
ATOM      3  C   LIG d   1     -15.101  99.775 115.913  0.00  0.00     0.038 C 
ATOM      4  C   LIG d   1     -16.260 100.298 115.319  0.00  0.00     0.028 C 
ATOM      5  C   LIG d   1     -17.345  99.252 115.085  0.00  0.00    -0.047 C 
ATOM      6  C   LIG d   1     -17.595  98.484 116.404  0.00  0.00     0.091 C 
ENDROOT
BRANCH   1   7
ATOM      7  O   LIG d   1     -16.441  97.555 118.356  0.00  0.00    -0.368 OA
BRANCH   7   8
ATOM      8  C   LIG d   1     -16.153  96.188 118.740  0.00  0.00     0.119 C 
BRANCH   8   9
ATOM      9  C   LIG d   1     -17.492  95.513 119.091  0.00  0.00     0.028 C 
ATOM     10  C   LIG d   1     -18.468  96.474 119.792  0.00  0.00     0.006 C 
ENDBRANCH   8   9
BRANCH   8  11
ATOM     11  C   LIG d   1     -15.322  96.134 120.025  0.00  0.00     0.028 C 
ATOM     12  C   LIG d   1     -14.879  97.525 120.507  0.00  0.00     0.006 C 
ENDBRANCH   8  11
ENDBRANCH   7   8
ENDBRANCH   1   7
BRANCH   6  13
ATOM     13  N   LIG d   1     -18.583  97.386 116.241  0.00  0.00    -0.311 N 
ATOM     14  C   LIG d   1     -19.885  97.530 116.480  0.00  0.00     0.210 C 
ATOM     15  C   LIG d   1     -20.725  96.267 116.270  0.00  0.00     0.109 C 
ATOM     16  O   LIG d   1     -20.429  98.593 116.815  0.00  0.00    -0.276 OA
ATOM     17  H   LIG d   1     -18.232  96.497 115.943  0.00  0.00     0.149 HD
ENDBRANCH   6  13
BRANCH   5  18
ATOM     18  N   LIG d   1     -18.543  99.956 114.591  0.00  0.00     0.381 N 
ATOM     19  H   LIG d   1     -18.650 100.825 115.076  0.00  0.00    -0.090 HD
ATOM     20  H   LIG d   1     -19.352  99.390 114.775  0.00  0.00    -0.090 HD
ATOM     21  H   LIG d   1     -18.461 100.123 113.612  0.00  0.00    -0.090 HD
ENDBRANCH   5  18
BRANCH   3  22
ATOM     22  C   LIG d   1     -13.885 100.373 115.622  0.00  0.00     0.382 C 
ATOM     23  O   LIG d   1     -12.822  99.889 116.082  0.00  0.00    -0.241 OA
ATOM     24  O   LIG d   1     -13.840 101.415 114.941  0.00  0.00    -0.241 OA
ENDBRANCH   3  22
TORSDOF 7
ENDMDL
MODEL 5
REMARK VINA RESULT:      -4.4      9.980     12.588
REMARK  7 active torsions:
REMARK  status: ('A' for Active; 'I' for Inactive)
REMARK    1  A    between atoms: C_2  and  C_3 
REMARK    2  A    between atoms: C_3  and  O_6 
REMARK    3  A    between atoms: C_3  and  C_4 
REMARK    4  A    between atoms: C_7  and  O_6 
REMARK    5  A    between atoms: C_9  and  C_10 
REMARK    6  A    between atoms: N_15  and  C_14 
REMARK    7  A    between atoms: N_20  and  C_19 
REMARK       I    between atoms: C_22  and  N_20 
ROOT
ATOM      1  C   LIG d   1       4.274  87.471 116.486  0.00  0.00     0.161 C 
ATOM      2  C   LIG d   1       3.512  88.640 116.328  0.00  0.00     0.016 C 
ATOM      3  C   LIG d   1       4.049  89.942 116.455  0.00  0.00     0.038 C 
ATOM      4  C   LIG d   1       5.426  90.165 116.602  0.00  0.00     0.028 C 
ATOM      5  C   LIG d   1       6.159  89.007 117.271  0.00  0.00    -0.047 C 
ATOM      6  C   LIG d   1       5.800  87.695 116.537  0.00  0.00     0.091 C 
ENDROOT
BRANCH   1   7
ATOM      7  O   LIG d   1       3.941  86.526 115.450  0.00  0.00    -0.368 OA
BRANCH   7   8
ATOM      8  C   LIG d   1       3.289  87.070 114.277  0.00  0.00     0.119 C 
BRANCH   8   9
ATOM      9  C   LIG d   1       2.156  86.102 113.885  0.00  0.00     0.028 C 
ATOM     10  C   LIG d   1       1.747  85.178 115.045  0.00  0.00     0.006 C 
ENDBRANCH   8   9
BRANCH   8  11
ATOM     11  C   LIG d   1       4.236  87.094 113.073  0.00  0.00     0.028 C 
ATOM     12  C   LIG d   1       5.146  88.332 113.055  0.00  0.00     0.006 C 
ENDBRANCH   8  11
ENDBRANCH   7   8
ENDBRANCH   1   7
BRANCH   6  13
ATOM     13  N   LIG d   1       6.409  86.501 117.179  0.00  0.00    -0.311 N 
ATOM     14  C   LIG d   1       7.570  85.973 116.794  0.00  0.00     0.210 C 
ATOM     15  C   LIG d   1       8.007  84.732 117.577  0.00  0.00     0.109 C 
ATOM     16  O   LIG d   1       8.294  86.434 115.898  0.00  0.00    -0.276 OA
ATOM     17  H   LIG d   1       5.904  86.082 117.935  0.00  0.00     0.149 HD
ENDBRANCH   6  13
BRANCH   5  18
ATOM     18  N   LIG d   1       7.602  89.313 117.235  0.00  0.00     0.381 N 
ATOM     19  H   LIG d   1       7.769  90.087 116.623  0.00  0.00    -0.090 HD
ATOM     20  H   LIG d   1       8.095  88.515 116.876  0.00  0.00    -0.090 HD
ATOM     21  H   LIG d   1       7.927  89.529 118.152  0.00  0.00    -0.090 HD
ENDBRANCH   5  18
BRANCH   3  22
ATOM     22  C   LIG d   1       3.198  91.037 116.476  0.00  0.00     0.382 C 
ATOM     23  O   LIG d   1       1.955  90.865 116.494  0.00  0.00    -0.241 OA
ATOM     24  O   LIG d   1       3.657  92.194 116.432  0.00  0.00    -0.241 OA
ENDBRANCH   3  22
TORSDOF 7
ENDMDL
MODEL 6
REMARK VINA RESULT:      -4.4     27.409     29.560
REMARK  7 active torsions:
REMARK  status: ('A' for Active; 'I' for Inactive)
REMARK    1  A    between atoms: C_2  and  C_3 
REMARK    2  A    between atoms: C_3  and  O_6 
REMARK    3  A    between atoms: C_3  and  C_4 
REMARK    4  A    between atoms: C_7  and  O_6 
REMARK    5  A    between atoms: C_9  and  C_10 
REMARK    6  A    between atoms: N_15  and  C_14 
REMARK    7  A    between atoms: N_20  and  C_19 
REMARK       I    between atoms: C_22  and  N_20 
ROOT
ATOM      1  C   LIG d   1     -15.285  66.054 116.883  0.00  0.00     0.161 C 
ATOM      2  C   LIG d   1     -15.854  65.796 115.624  0.00  0.00     0.016 C 
ATOM      3  C   LIG d   1     -16.370  64.535 115.247  0.00  0.00     0.038 C 
ATOM      4  C   LIG d   1     -16.491  63.479 116.163  0.00  0.00     0.028 C 
ATOM      5  C   LIG d   1     -15.469  63.539 117.293  0.00  0.00    -0.047 C 
ATOM      6  C   LIG d   1     -15.508  64.945 117.933  0.00  0.00     0.091 C 
ENDROOT
BRANCH   1   7
ATOM      7  O   LIG d   1     -15.758  67.320 117.383  0.00  0.00    -0.368 OA
BRANCH   7   8
ATOM      8  C   LIG d   1     -16.892  67.267 118.283  0.00  0.00     0.119 C 
BRANCH   8   9
ATOM      9  C   LIG d   1     -18.111  67.828 117.527  0.00  0.00     0.028 C 
ATOM     10  C   LIG d   1     -19.150  66.741 117.200  0.00  0.00     0.006 C 
ENDBRANCH   8   9
BRANCH   8  11
ATOM     11  C   LIG d   1     -16.695  68.198 119.483  0.00  0.00     0.028 C 
ATOM     12  C   LIG d   1     -17.444  67.721 120.737  0.00  0.00     0.006 C 
ENDBRANCH   8  11
ENDBRANCH   7   8
ENDBRANCH   1   7
BRANCH   6  13
ATOM     13  N   LIG d   1     -14.480  65.116 118.992  0.00  0.00    -0.311 N 
ATOM     14  C   LIG d   1     -14.726  64.932 120.288  0.00  0.00     0.210 C 
ATOM     15  C   LIG d   1     -13.531  65.180 121.214  0.00  0.00     0.109 C 
ATOM     16  O   LIG d   1     -15.811  64.557 120.756  0.00  0.00    -0.276 OA
ATOM     17  H   LIG d   1     -13.563  65.389 118.698  0.00  0.00     0.149 HD
ENDBRANCH   6  13
BRANCH   5  18
ATOM     18  N   LIG d   1     -15.795  62.461 118.246  0.00  0.00     0.381 N 
ATOM     19  H   LIG d   1     -14.965  61.955 118.483  0.00  0.00    -0.090 HD
ATOM     20  H   LIG d   1     -16.438  61.825 117.809  0.00  0.00    -0.090 HD
ATOM     21  H   LIG d   1     -16.204  62.846 119.069  0.00  0.00    -0.090 HD
ENDBRANCH   5  18
BRANCH   3  22
ATOM     22  C   LIG d   1     -16.737  64.309 113.929  0.00  0.00     0.382 C 
ATOM     23  O   LIG d   1     -16.880  65.276 113.143  0.00  0.00    -0.241 OA
ATOM     24  O   LIG d   1     -16.969  63.153 113.528  0.00  0.00    -0.241 OA
ENDBRANCH   3  22
TORSDOF 7
ENDMDL
MODEL 7
REMARK VINA RESULT:      -4.4      7.473     10.761
REMARK  7 active torsions:
REMARK  status: ('A' for Active; 'I' for Inactive)
REMARK    1  A    between atoms: C_2  and  C_3 
REMARK    2  A    between atoms: C_3  and  O_6 
REMARK    3  A    between atoms: C_3  and  C_4 
REMARK    4  A    between atoms: C_7  and  O_6 
REMARK    5  A    between atoms: C_9  and  C_10 
REMARK    6  A    between atoms: N_15  and  C_14 
REMARK    7  A    between atoms: N_20  and  C_19 
REMARK       I    between atoms: C_22  and  N_20 
ROOT
ATOM      1  C   LIG d   1       2.355  89.101 116.815  0.00  0.00     0.161 C 
ATOM      2  C   LIG d   1       2.789  90.332 117.335  0.00  0.00     0.016 C 
ATOM      3  C   LIG d   1       4.017  90.936 116.981  0.00  0.00     0.038 C 
ATOM      4  C   LIG d   1       4.831  90.419 115.961  0.00  0.00     0.028 C 
ATOM      5  C   LIG d   1       4.678  88.914 115.769  0.00  0.00    -0.047 C 
ATOM      6  C   LIG d   1       3.177  88.577 115.619  0.00  0.00     0.091 C 
ENDROOT
BRANCH   1   7
ATOM      7  O   LIG d   1       0.959  89.183 116.466  0.00  0.00    -0.368 OA
BRANCH   7   8
ATOM      8  C   LIG d   1       0.046  88.435 117.307  0.00  0.00     0.119 C 
BRANCH   8   9
ATOM      9  C   LIG d   1      -0.695  89.448 118.201  0.00  0.00     0.028 C 
ATOM     10  C   LIG d   1      -0.893  90.806 117.509  0.00  0.00     0.006 C 
ENDBRANCH   8   9
BRANCH   8  11
ATOM     11  C   LIG d   1       0.803  87.519 118.273  0.00  0.00     0.028 C 
ATOM     12  C   LIG d   1      -0.111  86.888 119.336  0.00  0.00     0.006 C 
ENDBRANCH   8  11
ENDBRANCH   7   8
ENDBRANCH   1   7
BRANCH   6  13
ATOM     13  N   LIG d   1       2.933  87.115 115.511  0.00  0.00    -0.311 N 
ATOM     14  C   LIG d   1       2.382  86.541 114.442  0.00  0.00     0.210 C 
ATOM     15  C   LIG d   1       2.201  85.024 114.545  0.00  0.00     0.109 C 
ATOM     16  O   LIG d   1       2.056  87.141 113.407  0.00  0.00    -0.276 OA
ATOM     17  H   LIG d   1       3.196  86.549 116.293  0.00  0.00     0.149 HD
ENDBRANCH   6  13
BRANCH   5  18
ATOM     18  N   LIG d   1       5.477  88.533 114.588  0.00  0.00     0.381 N 
ATOM     19  H   LIG d   1       5.858  87.617 114.719  0.00  0.00    -0.090 HD
ATOM     20  H   LIG d   1       6.239  89.180 114.488  0.00  0.00    -0.090 HD
ATOM     21  H   LIG d   1       4.907  88.551 113.771  0.00  0.00    -0.090 HD
ENDBRANCH   5  18
BRANCH   3  22
ATOM     22  C   LIG d   1       4.461  92.049 117.678  0.00  0.00     0.382 C 
ATOM     23  O   LIG d   1       5.268  91.912 118.629  0.00  0.00    -0.241 OA
ATOM     24  O   LIG d   1       4.032  93.184 117.396  0.00  0.00    -0.241 OA
ENDBRANCH   3  22
TORSDOF 7
ENDMDL
MODEL 8
REMARK VINA RESULT:      -4.3     27.913     29.958
REMARK  7 active torsions:
REMARK  status: ('A' for Active; 'I' for Inactive)
REMARK    1  A    between atoms: C_2  and  C_3 
REMARK    2  A    between atoms: C_3  and  O_6 
REMARK    3  A    between atoms: C_3  and  C_4 
REMARK    4  A    between atoms: C_7  and  O_6 
REMARK    5  A    between atoms: C_9  and  C_10 
REMARK    6  A    between atoms: N_15  and  C_14 
REMARK    7  A    between atoms: N_20  and  C_19 
REMARK       I    between atoms: C_22  and  N_20 
ROOT
ATOM      1  C   LIG d   1     -15.867  64.998 118.190  0.00  0.00     0.161 C 
ATOM      2  C   LIG d   1     -15.673  66.036 117.264  0.00  0.00     0.016 C 
ATOM      3  C   LIG d   1     -15.871  65.884 115.872  0.00  0.00     0.038 C 
ATOM      4  C   LIG d   1     -16.425  64.718 115.325  0.00  0.00     0.028 C 
ATOM      5  C   LIG d   1     -16.161  63.471 116.162  0.00  0.00    -0.047 C 
ATOM      6  C   LIG d   1     -16.578  63.751 117.624  0.00  0.00     0.091 C 
ENDROOT
BRANCH   1   7
ATOM      7  O   LIG d   1     -16.573  65.497 119.343  0.00  0.00    -0.368 OA
BRANCH   7   8
ATOM      8  C   LIG d   1     -15.779  65.702 120.538  0.00  0.00     0.119 C 
BRANCH   8   9
ATOM      9  C   LIG d   1     -15.784  67.212 120.844  0.00  0.00     0.028 C 
ATOM     10  C   LIG d   1     -17.032  67.919 120.290  0.00  0.00     0.006 C 
ENDBRANCH   8   9
BRANCH   8  11
ATOM     11  C   LIG d   1     -14.310  65.341 120.299  0.00  0.00     0.028 C 
ATOM     12  C   LIG d   1     -13.780  64.307 121.304  0.00  0.00     0.006 C 
ENDBRANCH   8  11
ENDBRANCH   7   8
ENDBRANCH   1   7
BRANCH   6  13
ATOM     13  N   LIG d   1     -16.275  62.611 118.529  0.00  0.00    -0.311 N 
ATOM     14  C   LIG d   1     -15.062  62.074 118.649  0.00  0.00     0.210 C 
ATOM     15  C   LIG d   1     -14.971  60.893 119.621  0.00  0.00     0.109 C 
ATOM     16  O   LIG d   1     -14.046  62.482 118.067  0.00  0.00    -0.276 OA
ATOM     17  H   LIG d   1     -17.035  62.237 119.062  0.00  0.00     0.149 HD
ENDBRANCH   6  13
BRANCH   5  18
ATOM     18  N   LIG d   1     -16.908  62.356 115.551  0.00  0.00     0.381 N 
ATOM     19  H   LIG d   1     -16.275  61.743 115.078  0.00  0.00    -0.090 HD
ATOM     20  H   LIG d   1     -17.552  62.729 114.875  0.00  0.00    -0.090 HD
ATOM     21  H   LIG d   1     -17.407  61.854 116.253  0.00  0.00    -0.090 HD
ENDBRANCH   5  18
BRANCH   3  22
ATOM     22  C   LIG d   1     -15.475  66.894 115.008  0.00  0.00     0.382 C 
ATOM     23  O   LIG d   1     -14.946  66.605 113.907  0.00  0.00    -0.241 OA
ATOM     24  O   LIG d   1     -15.598  68.089 115.334  0.00  0.00    -0.241 OA
ENDBRANCH   3  22
TORSDOF 7
ENDMDL
MODEL 9
REMARK VINA RESULT:      -4.3     27.427     29.741
REMARK  7 active torsions:
REMARK  status: ('A' for Active; 'I' for Inactive)
REMARK    1  A    between atoms: C_2  and  C_3 
REMARK    2  A    between atoms: C_3  and  O_6 
REMARK    3  A    between atoms: C_3  and  C_4 
REMARK    4  A    between atoms: C_7  and  O_6 
REMARK    5  A    between atoms: C_9  and  C_10 
REMARK    6  A    between atoms: N_15  and  C_14 
REMARK    7  A    between atoms: N_20  and  C_19 
REMARK       I    between atoms: C_22  and  N_20 
ROOT
ATOM      1  C   LIG d   1     -15.766  64.987 118.216  0.00  0.00     0.161 C 
ATOM      2  C   LIG d   1     -15.582  66.022 117.284  0.00  0.00     0.016 C 
ATOM      3  C   LIG d   1     -15.836  65.879 115.901  0.00  0.00     0.038 C 
ATOM      4  C   LIG d   1     -16.439  64.727 115.373  0.00  0.00     0.028 C 
ATOM      5  C   LIG d   1     -16.174  63.472 116.198  0.00  0.00    -0.047 C 
ATOM      6  C   LIG d   1     -16.529  63.759 117.675  0.00  0.00     0.091 C 
ENDROOT
BRANCH   1   7
ATOM      7  O   LIG d   1     -16.416  65.500 119.395  0.00  0.00    -0.368 OA
BRANCH   7   8
ATOM      8  C   LIG d   1     -15.823  66.683 119.985  0.00  0.00     0.119 C 
BRANCH   8   9
ATOM      9  C   LIG d   1     -15.152  66.256 121.305  0.00  0.00     0.028 C 
ATOM     10  C   LIG d   1     -13.626  66.121 121.171  0.00  0.00     0.006 C 
ENDBRANCH   8   9
BRANCH   8  11
ATOM     11  C   LIG d   1     -16.894  67.703 120.386  0.00  0.00     0.028 C 
ATOM     12  C   LIG d   1     -17.006  68.870 119.393  0.00  0.00     0.006 C 
ENDBRANCH   8  11
ENDBRANCH   7   8
ENDBRANCH   1   7
BRANCH   6  13
ATOM     13  N   LIG d   1     -16.220  62.610 118.565  0.00  0.00    -0.311 N 
ATOM     14  C   LIG d   1     -15.006  62.073 118.675  0.00  0.00     0.210 C 
ATOM     15  C   LIG d   1     -14.910  60.882 119.634  0.00  0.00     0.109 C 
ATOM     16  O   LIG d   1     -13.993  62.489 118.093  0.00  0.00    -0.276 OA
ATOM     17  H   LIG d   1     -16.977  62.229 119.098  0.00  0.00     0.149 HD
ENDBRANCH   6  13
BRANCH   5  18
ATOM     18  N   LIG d   1     -16.972  62.378 115.614  0.00  0.00     0.381 N 
ATOM     19  H   LIG d   1     -16.373  61.750 115.116  0.00  0.00    -0.090 HD
ATOM     20  H   LIG d   1     -17.631  62.768 114.963  0.00  0.00    -0.090 HD
ATOM     21  H   LIG d   1     -17.456  61.887 116.333  0.00  0.00    -0.090 HD
ENDBRANCH   5  18
BRANCH   3  22
ATOM     22  C   LIG d   1     -15.447  66.880 115.023  0.00  0.00     0.382 C 
ATOM     23  O   LIG d   1     -14.940  66.581 113.916  0.00  0.00    -0.241 OA
ATOM     24  O   LIG d   1     -15.557  68.078 115.344  0.00  0.00    -0.241 OA
ENDBRANCH   3  22
TORSDOF 7
ENDMDL
