MODEL 1
REMARK VINA RESULT:      -6.1      0.000      0.000
REMARK  7 active torsions:
REMARK  status: ('A' for Active; 'I' for Inactive)
REMARK    1  A    between atoms: C_2  and  C_3 
REMARK    2  A    between atoms: C_3  and  O_6 
REMARK    3  A    between atoms: C_3  and  C_4 
REMARK    4  A    between atoms: C_7  and  O_6 
REMARK    5  A    between atoms: C_9  and  C_10 
REMARK    6  A    between atoms: N_15  and  C_14 
REMARK    7  A    between atoms: N_20  and  C_19 
REMARK       I    between atoms: C_22  and  N_20 
ROOT
ATOM      1  C   LIG d   1      -9.774  74.285 117.842  0.00  0.00     0.161 C 
ATOM      2  C   LIG d   1      -9.523  72.961 117.446  0.00  0.00     0.016 C 
ATOM      3  C   LIG d   1      -8.255  72.503 117.020  0.00  0.00     0.038 C 
ATOM      4  C   LIG d   1      -7.109  73.308 117.106  0.00  0.00     0.028 C 
ATOM      5  C   LIG d   1      -7.410  74.801 117.022  0.00  0.00    -0.047 C 
ATOM      6  C   LIG d   1      -8.512  75.149 118.048  0.00  0.00     0.091 C 
ENDROOT
BRANCH   1   7
ATOM      7  O   LIG d   1     -10.587  74.293 119.032  0.00  0.00    -0.368 OA
BRANCH   7   8
ATOM      8  C   LIG d   1     -11.918  73.738 118.899  0.00  0.00     0.119 C 
BRANCH   8   9
ATOM      9  C   LIG d   1     -12.923  74.882 119.137  0.00  0.00     0.028 C 
ATOM     10  C   LIG d   1     -12.237  76.256 119.227  0.00  0.00     0.006 C 
ENDBRANCH   8   9
BRANCH   8  11
ATOM     11  C   LIG d   1     -12.206  72.710 119.997  0.00  0.00     0.028 C 
ATOM     12  C   LIG d   1     -13.380  73.118 120.901  0.00  0.00     0.006 C 
ENDBRANCH   8  11
ENDBRANCH   7   8
ENDBRANCH   1   7
BRANCH   6  13
ATOM     13  N   LIG d   1      -8.926  76.574 117.973  0.00  0.00    -0.311 N 
ATOM     14  C   LIG d   1      -8.421  77.526 118.756  0.00  0.00     0.210 C 
ATOM     15  C   LIG d   1      -9.001  78.926 118.528  0.00  0.00     0.109 C 
ATOM     16  O   LIG d   1      -7.524  77.350 119.595  0.00  0.00    -0.276 OA
ATOM     17  H   LIG d   1      -9.627  76.811 117.298  0.00  0.00     0.149 HD
ENDBRANCH   6  13
BRANCH   5  18
ATOM     18  N   LIG d   1      -6.147  75.524 117.263  0.00  0.00     0.381 N 
ATOM     19  H   LIG d   1      -5.544  74.971 117.838  0.00  0.00    -0.090 HD
ATOM     20  H   LIG d   1      -6.350  76.379 117.749  0.00  0.00    -0.090 HD
ATOM     21  H   LIG d   1      -5.698  75.725 116.396  0.00  0.00    -0.090 HD
ENDBRANCH   5  18
BRANCH   3  22
ATOM     22  C   LIG d   1      -8.131  71.239 116.464  0.00  0.00     0.382 C 
ATOM     23  O   LIG d   1      -8.898  70.316 116.829  0.00  0.00    -0.241 OA
ATOM     24  O   LIG d   1      -7.234  70.999 115.634  0.00  0.00    -0.241 OA
ENDBRANCH   3  22
TORSDOF 7
ENDMDL
MODEL 2
REMARK VINA RESULT:      -6.1      1.997      4.593
REMARK  7 active torsions:
REMARK  status: ('A' for Active; 'I' for Inactive)
REMARK    1  A    between atoms: C_2  and  C_3 
REMARK    2  A    between atoms: C_3  and  O_6 
REMARK    3  A    between atoms: C_3  and  C_4 
REMARK    4  A    between atoms: C_7  and  O_6 
REMARK    5  A    between atoms: C_9  and  C_10 
REMARK    6  A    between atoms: N_15  and  C_14 
REMARK    7  A    between atoms: N_20  and  C_19 
REMARK       I    between atoms: C_22  and  N_20 
ROOT
ATOM      1  C   LIG d   1      -8.462  74.689 117.771  0.00  0.00     0.161 C 
ATOM      2  C   LIG d   1      -8.085  73.480 117.163  0.00  0.00     0.016 C 
ATOM      3  C   LIG d   1      -8.892  72.320 117.171  0.00  0.00     0.038 C 
ATOM      4  C   LIG d   1     -10.206  72.334 117.661  0.00  0.00     0.028 C 
ATOM      5  C   LIG d   1     -10.440  73.391 118.736  0.00  0.00    -0.047 C 
ATOM      6  C   LIG d   1      -9.939  74.757 118.214  0.00  0.00     0.091 C 
ENDROOT
BRANCH   1   7
ATOM      7  O   LIG d   1      -8.149  75.793 116.899  0.00  0.00    -0.368 OA
BRANCH   7   8
ATOM      8  C   LIG d   1      -6.744  76.006 116.618  0.00  0.00     0.119 C 
BRANCH   8   9
ATOM      9  C   LIG d   1      -6.394  77.438 117.066  0.00  0.00     0.028 C 
ATOM     10  C   LIG d   1      -7.504  78.074 117.920  0.00  0.00     0.006 C 
ENDBRANCH   8   9
BRANCH   8  11
ATOM     11  C   LIG d   1      -6.465  75.971 115.113  0.00  0.00     0.028 C 
ATOM     12  C   LIG d   1      -5.837  74.646 114.653  0.00  0.00     0.006 C 
ENDBRANCH   8  11
ENDBRANCH   7   8
ENDBRANCH   1   7
BRANCH   6  13
ATOM     13  N   LIG d   1     -10.053  75.830 119.236  0.00  0.00    -0.311 N 
ATOM     14  C   LIG d   1     -11.095  76.656 119.318  0.00  0.00     0.210 C 
ATOM     15  C   LIG d   1     -11.003  77.704 120.431  0.00  0.00     0.109 C 
ATOM     16  O   LIG d   1     -12.100  76.600 118.594  0.00  0.00    -0.276 OA
ATOM     17  H   LIG d   1      -9.295  75.927 119.883  0.00  0.00     0.149 HD
ENDBRANCH   6  13
BRANCH   5  18
ATOM     18  N   LIG d   1     -11.880  73.388 119.058  0.00  0.00     0.381 N 
ATOM     19  H   LIG d   1     -12.138  72.504 119.449  0.00  0.00    -0.090 HD
ATOM     20  H   LIG d   1     -12.403  73.522 118.210  0.00  0.00    -0.090 HD
ATOM     21  H   LIG d   1     -12.086  74.118 119.703  0.00  0.00    -0.090 HD
ENDBRANCH   5  18
BRANCH   3  22
ATOM     22  C   LIG d   1      -8.371  71.117 116.720  0.00  0.00     0.382 C 
ATOM     23  O   LIG d   1      -7.422  71.113 115.899  0.00  0.00    -0.241 OA
ATOM     24  O   LIG d   1      -8.865  70.035 117.091  0.00  0.00    -0.241 OA
ENDBRANCH   3  22
TORSDOF 7
ENDMDL
MODEL 3
REMARK VINA RESULT:      -5.8      2.369      4.167
REMARK  7 active torsions:
REMARK  status: ('A' for Active; 'I' for Inactive)
REMARK    1  A    between atoms: C_2  and  C_3 
REMARK    2  A    between atoms: C_3  and  O_6 
REMARK    3  A    between atoms: C_3  and  C_4 
REMARK    4  A    between atoms: C_7  and  O_6 
REMARK    5  A    between atoms: C_9  and  C_10 
REMARK    6  A    between atoms: N_15  and  C_14 
REMARK    7  A    between atoms: N_20  and  C_19 
REMARK       I    between atoms: C_22  and  N_20 
ROOT
ATOM      1  C   LIG d   1      -8.562  74.547 117.847  0.00  0.00     0.161 C 
ATOM      2  C   LIG d   1      -7.420  74.750 117.054  0.00  0.00     0.016 C 
ATOM      3  C   LIG d   1      -6.832  73.735 116.264  0.00  0.00     0.038 C 
ATOM      4  C   LIG d   1      -7.438  72.482 116.095  0.00  0.00     0.028 C 
ATOM      5  C   LIG d   1      -8.317  72.070 117.271  0.00  0.00    -0.047 C 
ATOM      6  C   LIG d   1      -9.302  73.218 117.588  0.00  0.00     0.091 C 
ENDROOT
BRANCH   1   7
ATOM      7  O   LIG d   1      -9.465  75.661 117.696  0.00  0.00    -0.368 OA
BRANCH   7   8
ATOM      8  C   LIG d   1      -9.569  76.555 118.831  0.00  0.00     0.119 C 
BRANCH   8   9
ATOM      9  C   LIG d   1      -8.862  77.871 118.450  0.00  0.00     0.028 C 
ATOM     10  C   LIG d   1      -9.681  79.112 118.841  0.00  0.00     0.006 C 
ENDBRANCH   8   9
BRANCH   8  11
ATOM     11  C   LIG d   1      -8.798  76.015 120.039  0.00  0.00     0.028 C 
ATOM     12  C   LIG d   1      -9.705  75.733 121.247  0.00  0.00     0.006 C 
ENDBRANCH   8  11
ENDBRANCH   7   8
ENDBRANCH   1   7
BRANCH   6  13
ATOM     13  N   LIG d   1     -10.142  72.932 118.780  0.00  0.00    -0.311 N 
ATOM     14  C   LIG d   1     -11.411  73.321 118.894  0.00  0.00     0.210 C 
ATOM     15  C   LIG d   1     -12.089  72.939 120.213  0.00  0.00     0.109 C 
ATOM     16  O   LIG d   1     -12.049  73.919 118.014  0.00  0.00    -0.276 OA
ATOM     17  H   LIG d   1      -9.714  72.424 119.529  0.00  0.00     0.149 HD
ENDBRANCH   6  13
BRANCH   5  18
ATOM     18  N   LIG d   1      -8.994  70.812 116.903  0.00  0.00     0.381 N 
ATOM     19  H   LIG d   1      -8.341  70.191 116.469  0.00  0.00    -0.090 HD
ATOM     20  H   LIG d   1      -9.722  71.017 116.241  0.00  0.00    -0.090 HD
ATOM     21  H   LIG d   1      -9.382  70.384 117.714  0.00  0.00    -0.090 HD
ENDBRANCH   5  18
BRANCH   3  22
ATOM     22  C   LIG d   1      -5.601  73.958 115.665  0.00  0.00     0.382 C 
ATOM     23  O   LIG d   1      -4.585  74.153 116.374  0.00  0.00    -0.241 OA
ATOM     24  O   LIG d   1      -5.503  74.010 114.425  0.00  0.00    -0.241 OA
ENDBRANCH   3  22
TORSDOF 7
ENDMDL
MODEL 4
REMARK VINA RESULT:      -5.7      2.664      4.695
REMARK  7 active torsions:
REMARK  status: ('A' for Active; 'I' for Inactive)
REMARK    1  A    between atoms: C_2  and  C_3 
REMARK    2  A    between atoms: C_3  and  O_6 
REMARK    3  A    between atoms: C_3  and  C_4 
REMARK    4  A    between atoms: C_7  and  O_6 
REMARK    5  A    between atoms: C_9  and  C_10 
REMARK    6  A    between atoms: N_15  and  C_14 
REMARK    7  A    between atoms: N_20  and  C_19 
REMARK       I    between atoms: C_22  and  N_20 
ROOT
ATOM      1  C   LIG d   1      -7.578  75.737 117.329  0.00  0.00     0.161 C 
ATOM      2  C   LIG d   1      -6.862  76.095 116.175  0.00  0.00     0.016 C 
ATOM      3  C   LIG d   1      -6.263  75.152 115.307  0.00  0.00     0.038 C 
ATOM      4  C   LIG d   1      -6.470  73.773 115.455  0.00  0.00     0.028 C 
ATOM      5  C   LIG d   1      -6.764  73.355 116.892  0.00  0.00    -0.047 C 
ATOM      6  C   LIG d   1      -7.908  74.234 117.446  0.00  0.00     0.091 C 
ENDROOT
BRANCH   1   7
ATOM      7  O   LIG d   1      -8.782  76.523 117.421  0.00  0.00    -0.368 OA
BRANCH   7   8
ATOM      8  C   LIG d   1      -8.942  77.307 118.629  0.00  0.00     0.119 C 
BRANCH   8   9
ATOM      9  C   LIG d   1     -10.448  77.354 118.954  0.00  0.00     0.028 C 
ATOM     10  C   LIG d   1     -11.178  76.065 118.541  0.00  0.00     0.006 C 
ENDBRANCH   8   9
BRANCH   8  11
ATOM     11  C   LIG d   1      -8.529  78.765 118.406  0.00  0.00     0.028 C 
ATOM     12  C   LIG d   1      -9.660  79.758 118.715  0.00  0.00     0.006 C 
ENDBRANCH   8  11
ENDBRANCH   7   8
ENDBRANCH   1   7
BRANCH   6  13
ATOM     13  N   LIG d   1      -8.202  73.948 118.875  0.00  0.00    -0.311 N 
ATOM     14  C   LIG d   1      -9.198  73.160 119.274  0.00  0.00     0.210 C 
ATOM     15  C   LIG d   1      -9.339  73.015 120.793  0.00  0.00     0.109 C 
ATOM     16  O   LIG d   1      -9.960  72.543 118.515  0.00  0.00    -0.276 OA
ATOM     17  H   LIG d   1      -7.613  74.384 119.558  0.00  0.00     0.149 HD
ENDBRANCH   6  13
BRANCH   5  18
ATOM     18  N   LIG d   1      -7.094  71.917 116.879  0.00  0.00     0.381 N 
ATOM     19  H   LIG d   1      -7.236  71.594 117.815  0.00  0.00    -0.090 HD
ATOM     20  H   LIG d   1      -6.322  71.410 116.484  0.00  0.00    -0.090 HD
ATOM     21  H   LIG d   1      -7.915  71.761 116.338  0.00  0.00    -0.090 HD
ENDBRANCH   5  18
BRANCH   3  22
ATOM     22  C   LIG d   1      -5.414  75.587 114.301  0.00  0.00     0.382 C 
ATOM     23  O   LIG d   1      -4.171  75.516 114.455  0.00  0.00    -0.241 OA
ATOM     24  O   LIG d   1      -5.876  76.091 113.259  0.00  0.00    -0.241 OA
ENDBRANCH   3  22
TORSDOF 7
ENDMDL
MODEL 5
REMARK VINA RESULT:      -5.6     16.531     19.056
REMARK  7 active torsions:
REMARK  status: ('A' for Active; 'I' for Inactive)
REMARK    1  A    between atoms: C_2  and  C_3 
REMARK    2  A    between atoms: C_3  and  O_6 
REMARK    3  A    between atoms: C_3  and  C_4 
REMARK    4  A    between atoms: C_7  and  O_6 
REMARK    5  A    between atoms: C_9  and  C_10 
REMARK    6  A    between atoms: N_15  and  C_14 
REMARK    7  A    between atoms: N_20  and  C_19 
REMARK       I    between atoms: C_22  and  N_20 
ROOT
ATOM      1  C   LIG d   1      -6.227  92.976 117.263  0.00  0.00     0.161 C 
ATOM      2  C   LIG d   1      -7.091  92.157 116.517  0.00  0.00     0.016 C 
ATOM      3  C   LIG d   1      -6.717  90.892 116.009  0.00  0.00     0.038 C 
ATOM      4  C   LIG d   1      -5.495  90.290 116.343  0.00  0.00     0.028 C 
ATOM      5  C   LIG d   1      -4.396  91.294 116.675  0.00  0.00    -0.047 C 
ATOM      6  C   LIG d   1      -4.928  92.289 117.732  0.00  0.00     0.091 C 
ENDROOT
BRANCH   1   7
ATOM      7  O   LIG d   1      -6.934  93.534 118.389  0.00  0.00    -0.368 OA
BRANCH   7   8
ATOM      8  C   LIG d   1      -7.041  94.978 118.422  0.00  0.00     0.119 C 
BRANCH   8   9
ATOM      9  C   LIG d   1      -6.349  95.464 119.710  0.00  0.00     0.028 C 
ATOM     10  C   LIG d   1      -5.374  96.625 119.450  0.00  0.00     0.006 C 
ENDBRANCH   8   9
BRANCH   8  11
ATOM     11  C   LIG d   1      -8.500  95.425 118.553  0.00  0.00     0.028 C 
ATOM     12  C   LIG d   1      -8.963  95.527 120.015  0.00  0.00     0.006 C 
ENDBRANCH   8  11
ENDBRANCH   7   8
ENDBRANCH   1   7
BRANCH   6  13
ATOM     13  N   LIG d   1      -3.944  93.356 118.052  0.00  0.00    -0.311 N 
ATOM     14  C   LIG d   1      -3.108  93.296 119.086  0.00  0.00     0.210 C 
ATOM     15  C   LIG d   1      -2.189  94.511 119.247  0.00  0.00     0.109 C 
ATOM     16  O   LIG d   1      -3.016  92.337 119.867  0.00  0.00    -0.276 OA
ATOM     17  H   LIG d   1      -3.929  94.157 117.451  0.00  0.00     0.149 HD
ENDBRANCH   6  13
BRANCH   5  18
ATOM     18  N   LIG d   1      -3.221  90.532 117.139  0.00  0.00     0.381 N 
ATOM     19  H   LIG d   1      -3.258  89.599 116.777  0.00  0.00    -0.090 HD
ATOM     20  H   LIG d   1      -3.241  90.482 118.142  0.00  0.00    -0.090 HD
ATOM     21  H   LIG d   1      -2.384  90.979 116.837  0.00  0.00    -0.090 HD
ENDBRANCH   5  18
BRANCH   3  22
ATOM     22  C   LIG d   1      -7.555  90.232 115.123  0.00  0.00     0.382 C 
ATOM     23  O   LIG d   1      -8.493  89.522 115.558  0.00  0.00    -0.241 OA
ATOM     24  O   LIG d   1      -7.358  90.303 113.895  0.00  0.00    -0.241 OA
ENDBRANCH   3  22
TORSDOF 7
ENDMDL
MODEL 6
REMARK VINA RESULT:      -5.6      2.316      3.807
REMARK  7 active torsions:
REMARK  status: ('A' for Active; 'I' for Inactive)
REMARK    1  A    between atoms: C_2  and  C_3 
REMARK    2  A    between atoms: C_3  and  O_6 
REMARK    3  A    between atoms: C_3  and  C_4 
REMARK    4  A    between atoms: C_7  and  O_6 
REMARK    5  A    between atoms: C_9  and  C_10 
REMARK    6  A    between atoms: N_15  and  C_14 
REMARK    7  A    between atoms: N_20  and  C_19 
REMARK       I    between atoms: C_22  and  N_20 
ROOT
ATOM      1  C   LIG d   1      -8.169  74.419 117.709  0.00  0.00     0.161 C 
ATOM      2  C   LIG d   1      -7.358  74.309 116.567  0.00  0.00     0.016 C 
ATOM      3  C   LIG d   1      -6.691  75.408 115.979  0.00  0.00     0.038 C 
ATOM      4  C   LIG d   1      -6.668  76.673 116.585  0.00  0.00     0.028 C 
ATOM      5  C   LIG d   1      -7.885  76.946 117.463  0.00  0.00    -0.047 C 
ATOM      6  C   LIG d   1      -8.067  75.769 118.448  0.00  0.00     0.091 C 
ENDROOT
BRANCH   1   7
ATOM      7  O   LIG d   1      -7.890  73.331 118.613  0.00  0.00    -0.368 OA
BRANCH   7   8
ATOM      8  C   LIG d   1      -8.886  72.280 118.672  0.00  0.00     0.119 C 
BRANCH   8   9
ATOM      9  C   LIG d   1      -8.363  71.098 117.834  0.00  0.00     0.028 C 
ATOM     10  C   LIG d   1      -9.273  70.779 116.636  0.00  0.00     0.006 C 
ENDBRANCH   8   9
BRANCH   8  11
ATOM     11  C   LIG d   1     -10.191  72.711 117.995  0.00  0.00     0.028 C 
ATOM     12  C   LIG d   1     -11.348  72.890 118.991  0.00  0.00     0.006 C 
ENDBRANCH   8  11
ENDBRANCH   7   8
ENDBRANCH   1   7
BRANCH   6  13
ATOM     13  N   LIG d   1      -9.284  75.916 119.288  0.00  0.00    -0.311 N 
ATOM     14  C   LIG d   1      -9.287  75.752 120.610  0.00  0.00     0.210 C 
ATOM     15  C   LIG d   1     -10.653  75.930 121.280  0.00  0.00     0.109 C 
ATOM     16  O   LIG d   1      -8.283  75.507 121.294  0.00  0.00    -0.276 OA
ATOM     17  H   LIG d   1     -10.138  76.145 118.817  0.00  0.00     0.149 HD
ENDBRANCH   6  13
BRANCH   5  18
ATOM     18  N   LIG d   1      -7.665  78.238 118.139  0.00  0.00     0.381 N 
ATOM     19  H   LIG d   1      -8.033  78.981 117.579  0.00  0.00    -0.090 HD
ATOM     20  H   LIG d   1      -6.677  78.385 118.247  0.00  0.00    -0.090 HD
ATOM     21  H   LIG d   1      -8.108  78.236 119.032  0.00  0.00    -0.090 HD
ENDBRANCH   5  18
BRANCH   3  22
ATOM     22  C   LIG d   1      -6.070  75.256 114.748  0.00  0.00     0.382 C 
ATOM     23  O   LIG d   1      -5.649  74.128 114.394  0.00  0.00    -0.241 OA
ATOM     24  O   LIG d   1      -5.885  76.240 114.008  0.00  0.00    -0.241 OA
ENDBRANCH   3  22
TORSDOF 7
ENDMDL
MODEL 7
REMARK VINA RESULT:      -5.5      2.461      6.421
REMARK  7 active torsions:
REMARK  status: ('A' for Active; 'I' for Inactive)
REMARK    1  A    between atoms: C_2  and  C_3 
REMARK    2  A    between atoms: C_3  and  O_6 
REMARK    3  A    between atoms: C_3  and  C_4 
REMARK    4  A    between atoms: C_7  and  O_6 
REMARK    5  A    between atoms: C_9  and  C_10 
REMARK    6  A    between atoms: N_15  and  C_14 
REMARK    7  A    between atoms: N_20  and  C_19 
REMARK       I    between atoms: C_22  and  N_20 
ROOT
ATOM      1  C   LIG d   1      -8.170  74.808 117.562  0.00  0.00     0.161 C 
ATOM      2  C   LIG d   1      -8.217  76.179 117.865  0.00  0.00     0.016 C 
ATOM      3  C   LIG d   1      -9.357  76.819 118.401  0.00  0.00     0.038 C 
ATOM      4  C   LIG d   1     -10.487  76.097 118.815  0.00  0.00     0.028 C 
ATOM      5  C   LIG d   1     -10.676  74.785 118.062  0.00  0.00    -0.047 C 
ATOM      6  C   LIG d   1      -9.354  73.984 118.110  0.00  0.00     0.091 C 
ENDROOT
BRANCH   1   7
ATOM      7  O   LIG d   1      -6.920  74.250 118.014  0.00  0.00    -0.368 OA
BRANCH   7   8
ATOM      8  C   LIG d   1      -6.054  73.712 116.985  0.00  0.00     0.119 C 
BRANCH   8   9
ATOM      9  C   LIG d   1      -4.722  74.485 117.050  0.00  0.00     0.028 C 
ATOM     10  C   LIG d   1      -4.454  75.076 118.445  0.00  0.00     0.006 C 
ENDBRANCH   8   9
BRANCH   8  11
ATOM     11  C   LIG d   1      -6.614  73.985 115.586  0.00  0.00     0.028 C 
ATOM     12  C   LIG d   1      -5.725  74.931 114.763  0.00  0.00     0.006 C 
ENDBRANCH   8  11
ENDBRANCH   7   8
ENDBRANCH   1   7
BRANCH   6  13
ATOM     13  N   LIG d   1      -9.427  72.724 117.326  0.00  0.00    -0.311 N 
ATOM     14  C   LIG d   1      -8.991  71.550 117.782  0.00  0.00     0.210 C 
ATOM     15  C   LIG d   1      -9.141  70.380 116.805  0.00  0.00     0.109 C 
ATOM     16  O   LIG d   1      -8.524  71.362 118.916  0.00  0.00    -0.276 OA
ATOM     17  H   LIG d   1      -9.820  72.780 116.407  0.00  0.00     0.149 HD
ENDBRANCH   6  13
BRANCH   5  18
ATOM     18  N   LIG d   1     -11.807  74.072 118.686  0.00  0.00     0.381 N 
ATOM     19  H   LIG d   1     -12.492  73.850 117.992  0.00  0.00    -0.090 HD
ATOM     20  H   LIG d   1     -12.233  74.674 119.369  0.00  0.00    -0.090 HD
ATOM     21  H   LIG d   1     -11.484  73.237 119.124  0.00  0.00    -0.090 HD
ENDBRANCH   5  18
BRANCH   3  22
ATOM     22  C   LIG d   1      -9.390  78.202 118.491  0.00  0.00     0.382 C 
ATOM     23  O   LIG d   1      -8.340  78.867 118.320  0.00  0.00    -0.241 OA
ATOM     24  O   LIG d   1     -10.448  78.791 118.784  0.00  0.00    -0.241 OA
ENDBRANCH   3  22
TORSDOF 7
ENDMDL
MODEL 8
REMARK VINA RESULT:      -5.5     16.147     18.431
REMARK  7 active torsions:
REMARK  status: ('A' for Active; 'I' for Inactive)
REMARK    1  A    between atoms: C_2  and  C_3 
REMARK    2  A    between atoms: C_3  and  O_6 
REMARK    3  A    between atoms: C_3  and  C_4 
REMARK    4  A    between atoms: C_7  and  O_6 
REMARK    5  A    between atoms: C_9  and  C_10 
REMARK    6  A    between atoms: N_15  and  C_14 
REMARK    7  A    between atoms: N_20  and  C_19 
REMARK       I    between atoms: C_22  and  N_20 
ROOT
ATOM      1  C   LIG d   1      -4.241  91.049 117.603  0.00  0.00     0.161 C 
ATOM      2  C   LIG d   1      -5.103  90.375 116.722  0.00  0.00     0.016 C 
ATOM      3  C   LIG d   1      -6.313  90.928 116.243  0.00  0.00     0.038 C 
ATOM      4  C   LIG d   1      -6.670  92.261 116.494  0.00  0.00     0.028 C 
ATOM      5  C   LIG d   1      -6.082  92.812 117.788  0.00  0.00    -0.047 C 
ATOM      6  C   LIG d   1      -4.559  92.546 117.800  0.00  0.00     0.091 C 
ENDROOT
BRANCH   1   7
ATOM      7  O   LIG d   1      -2.875  90.879 117.176  0.00  0.00    -0.368 OA
BRANCH   7   8
ATOM      8  C   LIG d   1      -1.985  90.240 118.124  0.00  0.00     0.119 C 
BRANCH   8   9
ATOM      9  C   LIG d   1      -0.544  90.629 117.742  0.00  0.00     0.028 C 
ATOM     10  C   LIG d   1       0.239  91.220 118.927  0.00  0.00     0.006 C 
ENDBRANCH   8   9
BRANCH   8  11
ATOM     11  C   LIG d   1      -2.040  88.715 118.000  0.00  0.00     0.028 C 
ATOM     12  C   LIG d   1      -2.662  88.038 119.232  0.00  0.00     0.006 C 
ENDBRANCH   8  11
ENDBRANCH   7   8
ENDBRANCH   1   7
BRANCH   6  13
ATOM     13  N   LIG d   1      -3.918  92.979 119.070  0.00  0.00    -0.311 N 
ATOM     14  C   LIG d   1      -2.766  93.645 119.119  0.00  0.00     0.210 C 
ATOM     15  C   LIG d   1      -2.271  93.977 120.530  0.00  0.00     0.109 C 
ATOM     16  O   LIG d   1      -2.123  94.022 118.127  0.00  0.00    -0.276 OA
ATOM     17  H   LIG d   1      -4.388  92.742 119.922  0.00  0.00     0.149 HD
ENDBRANCH   6  13
BRANCH   5  18
ATOM     18  N   LIG d   1      -6.419  94.246 117.856  0.00  0.00     0.381 N 
ATOM     19  H   LIG d   1      -6.803  94.546 116.982  0.00  0.00    -0.090 HD
ATOM     20  H   LIG d   1      -5.578  94.770 118.027  0.00  0.00    -0.090 HD
ATOM     21  H   LIG d   1      -7.074  94.409 118.589  0.00  0.00    -0.090 HD
ENDBRANCH   5  18
BRANCH   3  22
ATOM     22  C   LIG d   1      -7.199  90.131 115.534  0.00  0.00     0.382 C 
ATOM     23  O   LIG d   1      -8.050  89.442 116.147  0.00  0.00    -0.241 OA
ATOM     24  O   LIG d   1      -7.130  90.058 114.293  0.00  0.00    -0.241 OA
ENDBRANCH   3  22
TORSDOF 7
ENDMDL
MODEL 9
REMARK VINA RESULT:      -5.2     10.466     12.729
REMARK  7 active torsions:
REMARK  status: ('A' for Active; 'I' for Inactive)
REMARK    1  A    between atoms: C_2  and  C_3 
REMARK    2  A    between atoms: C_3  and  O_6 
REMARK    3  A    between atoms: C_3  and  C_4 
REMARK    4  A    between atoms: C_7  and  O_6 
REMARK    5  A    between atoms: C_9  and  C_10 
REMARK    6  A    between atoms: N_15  and  C_14 
REMARK    7  A    between atoms: N_20  and  C_19 
REMARK       I    between atoms: C_22  and  N_20 
ROOT
ATOM      1  C   LIG d   1     -17.475  65.399 116.901  0.00  0.00     0.161 C 
ATOM      2  C   LIG d   1     -16.934  66.106 115.814  0.00  0.00     0.016 C 
ATOM      3  C   LIG d   1     -15.631  66.654 115.813  0.00  0.00     0.038 C 
ATOM      4  C   LIG d   1     -14.720  66.401 116.849  0.00  0.00     0.028 C 
ATOM      5  C   LIG d   1     -15.390  66.118 118.190  0.00  0.00    -0.047 C 
ATOM      6  C   LIG d   1     -16.457  65.017 117.995  0.00  0.00     0.091 C 
ENDROOT
BRANCH   1   7
ATOM      7  O   LIG d   1     -18.164  64.225 116.426  0.00  0.00    -0.368 OA
BRANCH   7   8
ATOM      8  C   LIG d   1     -17.347  63.233 115.757  0.00  0.00     0.119 C 
BRANCH   8   9
ATOM      9  C   LIG d   1     -18.051  62.868 114.436  0.00  0.00     0.028 C 
ATOM     10  C   LIG d   1     -19.331  63.689 114.206  0.00  0.00     0.006 C 
ENDBRANCH   8   9
BRANCH   8  11
ATOM     11  C   LIG d   1     -17.286  61.930 116.558  0.00  0.00     0.028 C 
ATOM     12  C   LIG d   1     -18.529  61.710 117.435  0.00  0.00     0.006 C 
ENDBRANCH   8  11
ENDBRANCH   7   8
ENDBRANCH   1   7
BRANCH   6  13
ATOM     13  N   LIG d   1     -17.218  64.739 119.241  0.00  0.00    -0.311 N 
ATOM     14  C   LIG d   1     -16.917  63.748 120.078  0.00  0.00     0.210 C 
ATOM     15  C   LIG d   1     -17.843  63.625 121.293  0.00  0.00     0.109 C 
ATOM     16  O   LIG d   1     -15.952  62.980 119.948  0.00  0.00    -0.276 OA
ATOM     17  H   LIG d   1     -17.999  65.334 119.441  0.00  0.00     0.149 HD
ENDBRANCH   6  13
BRANCH   5  18
ATOM     18  N   LIG d   1     -14.332  65.736 119.145  0.00  0.00     0.381 N 
ATOM     19  H   LIG d   1     -13.857  64.919 118.815  0.00  0.00    -0.090 HD
ATOM     20  H   LIG d   1     -14.756  65.519 120.030  0.00  0.00    -0.090 HD
ATOM     21  H   LIG d   1     -13.684  66.485 119.254  0.00  0.00    -0.090 HD
ENDBRANCH   5  18
BRANCH   3  22
ATOM     22  C   LIG d   1     -15.241  67.500 114.786  0.00  0.00     0.382 C 
ATOM     23  O   LIG d   1     -15.103  68.727 115.003  0.00  0.00    -0.241 OA
ATOM     24  O   LIG d   1     -15.070  67.057 113.634  0.00  0.00    -0.241 OA
ENDBRANCH   3  22
TORSDOF 7
ENDMDL
