MODEL 1
REMARK VINA RESULT:      -5.3      0.000      0.000
REMARK  7 active torsions:
REMARK  status: ('A' for Active; 'I' for Inactive)
REMARK    1  A    between atoms: C_2  and  C_3 
REMARK    2  A    between atoms: C_3  and  O_6 
REMARK    3  A    between atoms: C_3  and  C_4 
REMARK    4  A    between atoms: C_7  and  O_6 
REMARK    5  A    between atoms: C_9  and  C_10 
REMARK    6  A    between atoms: N_15  and  C_14 
REMARK    7  A    between atoms: N_20  and  C_19 
REMARK       I    between atoms: C_22  and  N_20 
ROOT
ATOM      1  C   LIG d   1      -6.689  77.282 117.435  0.00  0.00     0.161 C 
ATOM      2  C   LIG d   1      -7.990  77.652 117.813  0.00  0.00     0.016 C 
ATOM      3  C   LIG d   1      -8.405  78.995 117.964  0.00  0.00     0.038 C 
ATOM      4  C   LIG d   1      -7.583  80.071 117.597  0.00  0.00     0.028 C 
ATOM      5  C   LIG d   1      -6.094  79.754 117.691  0.00  0.00    -0.047 C 
ATOM      6  C   LIG d   1      -5.810  78.443 116.923  0.00  0.00     0.091 C 
ENDROOT
BRANCH   1   7
ATOM      7  O   LIG d   1      -6.746  76.227 116.454  0.00  0.00    -0.368 OA
BRANCH   7   8
ATOM      8  C   LIG d   1      -6.285  74.925 116.892  0.00  0.00     0.119 C 
BRANCH   8   9
ATOM      9  C   LIG d   1      -5.620  74.239 115.682  0.00  0.00     0.028 C 
ATOM     10  C   LIG d   1      -5.329  75.223 114.537  0.00  0.00     0.006 C 
ENDBRANCH   8   9
BRANCH   8  11
ATOM     11  C   LIG d   1      -7.458  74.019 117.278  0.00  0.00     0.028 C 
ATOM     12  C   LIG d   1      -7.308  72.588 116.738  0.00  0.00     0.006 C 
ENDBRANCH   8  11
ENDBRANCH   7   8
ENDBRANCH   1   7
BRANCH   6  13
ATOM     13  N   LIG d   1      -4.391  78.016 117.035  0.00  0.00    -0.311 N 
ATOM     14  C   LIG d   1      -3.537  78.034 116.012  0.00  0.00     0.210 C 
ATOM     15  C   LIG d   1      -2.127  77.533 116.339  0.00  0.00     0.109 C 
ATOM     16  O   LIG d   1      -3.806  78.446 114.874  0.00  0.00    -0.276 OA
ATOM     17  H   LIG d   1      -4.080  77.696 117.931  0.00  0.00     0.149 HD
ENDBRANCH   6  13
BRANCH   5  18
ATOM     18  N   LIG d   1      -5.357  80.912 117.150  0.00  0.00     0.381 N 
ATOM     19  H   LIG d   1      -5.884  81.333 116.410  0.00  0.00    -0.090 HD
ATOM     20  H   LIG d   1      -4.482  80.593 116.772  0.00  0.00    -0.090 HD
ATOM     21  H   LIG d   1      -5.193  81.579 117.871  0.00  0.00    -0.090 HD
ENDBRANCH   5  18
BRANCH   3  22
ATOM     22  C   LIG d   1      -9.642  79.273 118.525  0.00  0.00     0.382 C 
ATOM     23  O   LIG d   1      -9.819  80.344 119.154  0.00  0.00    -0.241 OA
ATOM     24  O   LIG d   1     -10.571  78.446 118.448  0.00  0.00    -0.241 OA
ENDBRANCH   3  22
TORSDOF 7
ENDMDL
MODEL 2
REMARK VINA RESULT:      -5.0      1.911      2.898
REMARK  7 active torsions:
REMARK  status: ('A' for Active; 'I' for Inactive)
REMARK    1  A    between atoms: C_2  and  C_3 
REMARK    2  A    between atoms: C_3  and  O_6 
REMARK    3  A    between atoms: C_3  and  C_4 
REMARK    4  A    between atoms: C_7  and  O_6 
REMARK    5  A    between atoms: C_9  and  C_10 
REMARK    6  A    between atoms: N_15  and  C_14 
REMARK    7  A    between atoms: N_20  and  C_19 
REMARK       I    between atoms: C_22  and  N_20 
ROOT
ATOM      1  C   LIG d   1      -6.397  79.371 117.608  0.00  0.00     0.161 C 
ATOM      2  C   LIG d   1      -7.729  79.026 117.892  0.00  0.00     0.016 C 
ATOM      3  C   LIG d   1      -8.680  79.944 118.394  0.00  0.00     0.038 C 
ATOM      4  C   LIG d   1      -8.401  81.314 118.505  0.00  0.00     0.028 C 
ATOM      5  C   LIG d   1      -6.921  81.617 118.709  0.00  0.00    -0.047 C 
ATOM      6  C   LIG d   1      -6.105  80.886 117.618  0.00  0.00     0.091 C 
ENDROOT
BRANCH   1   7
ATOM      7  O   LIG d   1      -6.000  78.792 116.349  0.00  0.00    -0.368 OA
BRANCH   7   8
ATOM      8  C   LIG d   1      -5.254  77.553 116.425  0.00  0.00     0.119 C 
BRANCH   8   9
ATOM      9  C   LIG d   1      -3.915  77.773 115.694  0.00  0.00     0.028 C 
ATOM     10  C   LIG d   1      -2.735  77.933 116.667  0.00  0.00     0.006 C 
ENDBRANCH   8   9
BRANCH   8  11
ATOM     11  C   LIG d   1      -5.956  76.431 115.654  0.00  0.00     0.028 C 
ATOM     12  C   LIG d   1      -5.124  75.908 114.473  0.00  0.00     0.006 C 
ENDBRANCH   8  11
ENDBRANCH   7   8
ENDBRANCH   1   7
BRANCH   6  13
ATOM     13  N   LIG d   1      -4.639  81.061 117.794  0.00  0.00    -0.311 N 
ATOM     14  C   LIG d   1      -3.844  81.569 116.855  0.00  0.00     0.210 C 
ATOM     15  C   LIG d   1      -2.361  81.643 117.234  0.00  0.00     0.109 C 
ATOM     16  O   LIG d   1      -4.229  81.996 115.756  0.00  0.00    -0.276 OA
ATOM     17  H   LIG d   1      -4.247  80.769 118.668  0.00  0.00     0.149 HD
ENDBRANCH   6  13
BRANCH   5  18
ATOM     18  N   LIG d   1      -6.756  83.082 118.670  0.00  0.00     0.381 N 
ATOM     19  H   LIG d   1      -7.089  83.438 117.796  0.00  0.00    -0.090 HD
ATOM     20  H   LIG d   1      -5.778  83.302 118.747  0.00  0.00    -0.090 HD
ATOM     21  H   LIG d   1      -7.258  83.502 119.420  0.00  0.00    -0.090 HD
ENDBRANCH   5  18
BRANCH   3  22
ATOM     22  C   LIG d   1      -9.914  79.485 118.830  0.00  0.00     0.382 C 
ATOM     23  O   LIG d   1     -10.493  80.055 119.786  0.00  0.00    -0.241 OA
ATOM     24  O   LIG d   1     -10.435  78.482 118.307  0.00  0.00    -0.241 OA
ENDBRANCH   3  22
TORSDOF 7
ENDMDL
MODEL 3
REMARK VINA RESULT:      -4.8     13.497     16.112
REMARK  7 active torsions:
REMARK  status: ('A' for Active; 'I' for Inactive)
REMARK    1  A    between atoms: C_2  and  C_3 
REMARK    2  A    between atoms: C_3  and  O_6 
REMARK    3  A    between atoms: C_3  and  C_4 
REMARK    4  A    between atoms: C_7  and  O_6 
REMARK    5  A    between atoms: C_9  and  C_10 
REMARK    6  A    between atoms: N_15  and  C_14 
REMARK    7  A    between atoms: N_20  and  C_19 
REMARK       I    between atoms: C_22  and  N_20 
ROOT
ATOM      1  C   LIG d   1     -15.520  65.615 117.599  0.00  0.00     0.161 C 
ATOM      2  C   LIG d   1     -15.445  66.559 116.561  0.00  0.00     0.016 C 
ATOM      3  C   LIG d   1     -15.875  66.298 115.240  0.00  0.00     0.038 C 
ATOM      4  C   LIG d   1     -16.554  65.118 114.900  0.00  0.00     0.028 C 
ATOM      5  C   LIG d   1     -16.200  63.937 115.796  0.00  0.00    -0.047 C 
ATOM      6  C   LIG d   1     -16.359  64.362 117.274  0.00  0.00     0.091 C 
ENDROOT
BRANCH   1   7
ATOM      7  O   LIG d   1     -16.008  66.247 118.799  0.00  0.00    -0.368 OA
BRANCH   7   8
ATOM      8  C   LIG d   1     -15.306  67.443 119.220  0.00  0.00     0.119 C 
BRANCH   8   9
ATOM      9  C   LIG d   1     -14.276  67.025 120.286  0.00  0.00     0.028 C 
ATOM     10  C   LIG d   1     -13.586  68.233 120.942  0.00  0.00     0.006 C 
ENDBRANCH   8   9
BRANCH   8  11
ATOM     11  C   LIG d   1     -16.248  68.422 119.928  0.00  0.00     0.028 C 
ATOM     12  C   LIG d   1     -17.358  68.953 119.007  0.00  0.00     0.006 C 
ENDBRANCH   8  11
ENDBRANCH   7   8
ENDBRANCH   1   7
BRANCH   6  13
ATOM     13  N   LIG d   1     -15.952  63.290 118.220  0.00  0.00    -0.311 N 
ATOM     14  C   LIG d   1     -16.676  62.934 119.279  0.00  0.00     0.210 C 
ATOM     15  C   LIG d   1     -16.064  61.820 120.135  0.00  0.00     0.109 C 
ATOM     16  O   LIG d   1     -17.782  63.411 119.574  0.00  0.00    -0.276 OA
ATOM     17  H   LIG d   1     -15.082  62.828 118.038  0.00  0.00     0.149 HD
ENDBRANCH   6  13
BRANCH   5  18
ATOM     18  N   LIG d   1     -17.078  62.813 115.420  0.00  0.00     0.381 N 
ATOM     19  H   LIG d   1     -17.994  63.155 115.207  0.00  0.00    -0.090 HD
ATOM     20  H   LIG d   1     -17.151  62.182 116.199  0.00  0.00    -0.090 HD
ATOM     21  H   LIG d   1     -16.702  62.335 114.631  0.00  0.00    -0.090 HD
ENDBRANCH   5  18
BRANCH   3  22
ATOM     22  C   LIG d   1     -15.591  67.208 114.232  0.00  0.00     0.382 C 
ATOM     23  O   LIG d   1     -15.423  66.808 113.055  0.00  0.00    -0.241 OA
ATOM     24  O   LIG d   1     -15.457  68.418 114.494  0.00  0.00    -0.241 OA
ENDBRANCH   3  22
TORSDOF 7
ENDMDL
MODEL 4
REMARK VINA RESULT:      -4.7     15.305     18.148
REMARK  7 active torsions:
REMARK  status: ('A' for Active; 'I' for Inactive)
REMARK    1  A    between atoms: C_2  and  C_3 
REMARK    2  A    between atoms: C_3  and  O_6 
REMARK    3  A    between atoms: C_3  and  C_4 
REMARK    4  A    between atoms: C_7  and  O_6 
REMARK    5  A    between atoms: C_9  and  C_10 
REMARK    6  A    between atoms: N_15  and  C_14 
REMARK    7  A    between atoms: N_20  and  C_19 
REMARK       I    between atoms: C_22  and  N_20 
ROOT
ATOM      1  C   LIG d   1      11.112  77.409 115.302  0.00  0.00     0.161 C 
ATOM      2  C   LIG d   1       9.739  77.701 115.270  0.00  0.00     0.016 C 
ATOM      3  C   LIG d   1       9.214  78.924 114.794  0.00  0.00     0.038 C 
ATOM      4  C   LIG d   1      10.024  79.887 114.174  0.00  0.00     0.028 C 
ATOM      5  C   LIG d   1      11.475  79.851 114.642  0.00  0.00    -0.047 C 
ATOM      6  C   LIG d   1      12.003  78.402 114.527  0.00  0.00     0.091 C 
ENDROOT
BRANCH   1   7
ATOM      7  O   LIG d   1      11.337  76.064 114.835  0.00  0.00    -0.368 OA
BRANCH   7   8
ATOM      8  C   LIG d   1      11.621  75.074 115.854  0.00  0.00     0.119 C 
BRANCH   8   9
ATOM      9  C   LIG d   1      13.107  74.688 115.723  0.00  0.00     0.028 C 
ATOM     10  C   LIG d   1      13.945  75.163 116.922  0.00  0.00     0.006 C 
ENDBRANCH   8   9
BRANCH   8  11
ATOM     11  C   LIG d   1      10.842  73.779 115.605  0.00  0.00     0.028 C 
ATOM     12  C   LIG d   1      11.730  72.642 115.077  0.00  0.00     0.006 C 
ENDBRANCH   8  11
ENDBRANCH   7   8
ENDBRANCH   1   7
BRANCH   6  13
ATOM     13  N   LIG d   1      13.389  78.262 115.043  0.00  0.00    -0.311 N 
ATOM     14  C   LIG d   1      14.425  77.919 114.280  0.00  0.00     0.210 C 
ATOM     15  C   LIG d   1      15.764  77.811 115.016  0.00  0.00     0.109 C 
ATOM     16  O   LIG d   1      14.368  77.725 113.056  0.00  0.00    -0.276 OA
ATOM     17  H   LIG d   1      13.531  78.432 116.020  0.00  0.00     0.149 HD
ENDBRANCH   6  13
BRANCH   5  18
ATOM     18  N   LIG d   1      12.233  80.810 113.817  0.00  0.00     0.381 N 
ATOM     19  H   LIG d   1      12.536  80.366 112.973  0.00  0.00    -0.090 HD
ATOM     20  H   LIG d   1      13.047  81.105 114.327  0.00  0.00    -0.090 HD
ATOM     21  H   LIG d   1      11.664  81.598 113.600  0.00  0.00    -0.090 HD
ENDBRANCH   5  18
BRANCH   3  22
ATOM     22  C   LIG d   1       7.869  79.211 114.974  0.00  0.00     0.382 C 
ATOM     23  O   LIG d   1       7.519  80.078 115.810  0.00  0.00    -0.241 OA
ATOM     24  O   LIG d   1       6.999  78.583 114.342  0.00  0.00    -0.241 OA
ENDBRANCH   3  22
TORSDOF 7
ENDMDL
MODEL 5
REMARK VINA RESULT:      -4.6     13.827     16.959
REMARK  7 active torsions:
REMARK  status: ('A' for Active; 'I' for Inactive)
REMARK    1  A    between atoms: C_2  and  C_3 
REMARK    2  A    between atoms: C_3  and  O_6 
REMARK    3  A    between atoms: C_3  and  C_4 
REMARK    4  A    between atoms: C_7  and  O_6 
REMARK    5  A    between atoms: C_9  and  C_10 
REMARK    6  A    between atoms: N_15  and  C_14 
REMARK    7  A    between atoms: N_20  and  C_19 
REMARK       I    between atoms: C_22  and  N_20 
ROOT
ATOM      1  C   LIG d   1     -15.955  64.076 116.908  0.00  0.00     0.161 C 
ATOM      2  C   LIG d   1     -15.422  65.292 117.367  0.00  0.00     0.016 C 
ATOM      3  C   LIG d   1     -15.443  66.486 116.609  0.00  0.00     0.038 C 
ATOM      4  C   LIG d   1     -16.138  66.581 115.395  0.00  0.00     0.028 C 
ATOM      5  C   LIG d   1     -16.257  65.250 114.659  0.00  0.00    -0.047 C 
ATOM      6  C   LIG d   1     -16.816  64.187 115.632  0.00  0.00     0.091 C 
ENDROOT
BRANCH   1   7
ATOM      7  O   LIG d   1     -16.704  63.441 117.964  0.00  0.00    -0.368 OA
BRANCH   7   8
ATOM      8  C   LIG d   1     -17.199  64.315 119.008  0.00  0.00     0.119 C 
BRANCH   8   9
ATOM      9  C   LIG d   1     -17.050  63.568 120.347  0.00  0.00     0.028 C 
ATOM     10  C   LIG d   1     -15.751  62.748 120.420  0.00  0.00     0.006 C 
ENDBRANCH   8   9
BRANCH   8  11
ATOM     11  C   LIG d   1     -18.701  64.573 118.853  0.00  0.00     0.028 C 
ATOM     12  C   LIG d   1     -19.010  65.954 118.255  0.00  0.00     0.006 C 
ENDBRANCH   8  11
ENDBRANCH   7   8
ENDBRANCH   1   7
BRANCH   6  13
ATOM     13  N   LIG d   1     -16.884  62.836 115.017  0.00  0.00    -0.311 N 
ATOM     14  C   LIG d   1     -17.963  62.369 114.391  0.00  0.00     0.210 C 
ATOM     15  C   LIG d   1     -17.829  60.944 113.847  0.00  0.00     0.109 C 
ATOM     16  O   LIG d   1     -19.007  63.013 114.206  0.00  0.00    -0.276 OA
ATOM     17  H   LIG d   1     -16.070  62.258 115.093  0.00  0.00     0.149 HD
ENDBRANCH   6  13
BRANCH   5  18
ATOM     18  N   LIG d   1     -17.120  65.466 113.482  0.00  0.00     0.381 N 
ATOM     19  H   LIG d   1     -18.023  65.068 113.646  0.00  0.00    -0.090 HD
ATOM     20  H   LIG d   1     -16.710  65.004 112.690  0.00  0.00    -0.090 HD
ATOM     21  H   LIG d   1     -17.207  66.442 113.299  0.00  0.00    -0.090 HD
ENDBRANCH   5  18
BRANCH   3  22
ATOM     22  C   LIG d   1     -14.730  67.591 117.048  0.00  0.00     0.382 C 
ATOM     23  O   LIG d   1     -15.173  68.290 117.991  0.00  0.00    -0.241 OA
ATOM     24  O   LIG d   1     -13.670  67.923 116.484  0.00  0.00    -0.241 OA
ENDBRANCH   3  22
TORSDOF 7
ENDMDL
MODEL 6
REMARK VINA RESULT:      -4.5     13.347     16.126
REMARK  7 active torsions:
REMARK  status: ('A' for Active; 'I' for Inactive)
REMARK    1  A    between atoms: C_2  and  C_3 
REMARK    2  A    between atoms: C_3  and  O_6 
REMARK    3  A    between atoms: C_3  and  C_4 
REMARK    4  A    between atoms: C_7  and  O_6 
REMARK    5  A    between atoms: C_9  and  C_10 
REMARK    6  A    between atoms: N_15  and  C_14 
REMARK    7  A    between atoms: N_20  and  C_19 
REMARK       I    between atoms: C_22  and  N_20 
ROOT
ATOM      1  C   LIG d   1       4.455  87.954 117.292  0.00  0.00     0.161 C 
ATOM      2  C   LIG d   1       4.736  86.710 116.702  0.00  0.00     0.016 C 
ATOM      3  C   LIG d   1       3.910  86.107 115.726  0.00  0.00     0.038 C 
ATOM      4  C   LIG d   1       2.818  86.782 115.159  0.00  0.00     0.028 C 
ATOM      5  C   LIG d   1       2.206  87.828 116.084  0.00  0.00    -0.047 C 
ATOM      6  C   LIG d   1       3.328  88.755 116.605  0.00  0.00     0.091 C 
ENDROOT
BRANCH   1   7
ATOM      7  O   LIG d   1       5.658  88.743 117.364  0.00  0.00    -0.368 OA
BRANCH   7   8
ATOM      8  C   LIG d   1       6.532  88.680 116.211  0.00  0.00     0.119 C 
BRANCH   8   9
ATOM      9  C   LIG d   1       7.983  88.760 116.724  0.00  0.00     0.028 C 
ATOM     10  C   LIG d   1       8.711  87.408 116.642  0.00  0.00     0.006 C 
ENDBRANCH   8   9
BRANCH   8  11
ATOM     11  C   LIG d   1       6.353  89.904 115.308  0.00  0.00     0.028 C 
ATOM     12  C   LIG d   1       5.825  89.542 113.911  0.00  0.00     0.006 C 
ENDBRANCH   8  11
ENDBRANCH   7   8
ENDBRANCH   1   7
BRANCH   6  13
ATOM     13  N   LIG d   1       2.828  89.756 117.583  0.00  0.00    -0.311 N 
ATOM     14  C   LIG d   1       2.989  91.070 117.435  0.00  0.00     0.210 C 
ATOM     15  C   LIG d   1       2.415  91.924 118.569  0.00  0.00     0.109 C 
ATOM     16  O   LIG d   1       3.525  91.610 116.455  0.00  0.00    -0.276 OA
ATOM     17  H   LIG d   1       2.354  89.406 118.392  0.00  0.00     0.149 HD
ENDBRANCH   6  13
BRANCH   5  18
ATOM     18  N   LIG d   1       1.171  88.548 115.319  0.00  0.00     0.381 N 
ATOM     19  H   LIG d   1       0.368  87.963 115.201  0.00  0.00    -0.090 HD
ATOM     20  H   LIG d   1       1.535  88.772 114.409  0.00  0.00    -0.090 HD
ATOM     21  H   LIG d   1       0.914  89.384 115.796  0.00  0.00    -0.090 HD
ENDBRANCH   5  18
BRANCH   3  22
ATOM     22  C   LIG d   1       4.150  84.798 115.336  0.00  0.00     0.382 C 
ATOM     23  O   LIG d   1       4.887  84.061 116.035  0.00  0.00    -0.241 OA
ATOM     24  O   LIG d   1       3.675  84.359 114.272  0.00  0.00    -0.241 OA
ENDBRANCH   3  22
TORSDOF 7
ENDMDL
MODEL 7
REMARK VINA RESULT:      -4.5     15.112     18.813
REMARK  7 active torsions:
REMARK  status: ('A' for Active; 'I' for Inactive)
REMARK    1  A    between atoms: C_2  and  C_3 
REMARK    2  A    between atoms: C_3  and  O_6 
REMARK    3  A    between atoms: C_3  and  C_4 
REMARK    4  A    between atoms: C_7  and  O_6 
REMARK    5  A    between atoms: C_9  and  C_10 
REMARK    6  A    between atoms: N_15  and  C_14 
REMARK    7  A    between atoms: N_20  and  C_19 
REMARK       I    between atoms: C_22  and  N_20 
ROOT
ATOM      1  C   LIG d   1      11.309  79.701 114.071  0.00  0.00     0.161 C 
ATOM      2  C   LIG d   1       9.946  79.893 114.350  0.00  0.00     0.016 C 
ATOM      3  C   LIG d   1       9.110  78.882 114.878  0.00  0.00     0.038 C 
ATOM      4  C   LIG d   1       9.620  77.647 115.307  0.00  0.00     0.028 C 
ATOM      5  C   LIG d   1      10.893  77.232 114.577  0.00  0.00    -0.047 C 
ATOM      6  C   LIG d   1      11.908  78.396 114.635  0.00  0.00     0.091 C 
ENDROOT
BRANCH   1   7
ATOM      7  O   LIG d   1      12.066  80.839 114.529  0.00  0.00    -0.368 OA
BRANCH   7   8
ATOM      8  C   LIG d   1      12.663  80.720 115.844  0.00  0.00     0.119 C 
BRANCH   8   9
ATOM      9  C   LIG d   1      11.928  81.702 116.776  0.00  0.00     0.028 C 
ATOM     10  C   LIG d   1      12.704  83.015 116.976  0.00  0.00     0.006 C 
ENDBRANCH   8   9
BRANCH   8  11
ATOM     11  C   LIG d   1      14.123  81.183 115.837  0.00  0.00     0.028 C 
ATOM     12  C   LIG d   1      14.700  81.314 114.419  0.00  0.00     0.006 C 
ENDBRANCH   8  11
ENDBRANCH   7   8
ENDBRANCH   1   7
BRANCH   6  13
ATOM     13  N   LIG d   1      13.150  78.104 113.873  0.00  0.00    -0.311 N 
ATOM     14  C   LIG d   1      14.252  77.606 114.431  0.00  0.00     0.210 C 
ATOM     15  C   LIG d   1      15.426  77.399 113.469  0.00  0.00     0.109 C 
ATOM     16  O   LIG d   1      14.358  77.285 115.624  0.00  0.00    -0.276 OA
ATOM     17  H   LIG d   1      13.141  78.305 112.892  0.00  0.00     0.149 HD
ENDBRANCH   6  13
BRANCH   5  18
ATOM     18  N   LIG d   1      11.391  75.999 115.216  0.00  0.00     0.381 N 
ATOM     19  H   LIG d   1      11.094  75.968 116.171  0.00  0.00    -0.090 HD
ATOM     20  H   LIG d   1      12.395  76.006 115.198  0.00  0.00    -0.090 HD
ATOM     21  H   LIG d   1      11.048  75.200 114.729  0.00  0.00    -0.090 HD
ENDBRANCH   5  18
BRANCH   3  22
ATOM     22  C   LIG d   1       7.741  79.088 114.944  0.00  0.00     0.382 C 
ATOM     23  O   LIG d   1       7.286  80.094 115.539  0.00  0.00    -0.241 OA
ATOM     24  O   LIG d   1       6.953  78.256 114.455  0.00  0.00    -0.241 OA
ENDBRANCH   3  22
TORSDOF 7
ENDMDL
MODEL 8
REMARK VINA RESULT:      -4.5      3.782      6.113
REMARK  7 active torsions:
REMARK  status: ('A' for Active; 'I' for Inactive)
REMARK    1  A    between atoms: C_2  and  C_3 
REMARK    2  A    between atoms: C_3  and  O_6 
REMARK    3  A    between atoms: C_3  and  C_4 
REMARK    4  A    between atoms: C_7  and  O_6 
REMARK    5  A    between atoms: C_9  and  C_10 
REMARK    6  A    between atoms: N_15  and  C_14 
REMARK    7  A    between atoms: N_20  and  C_19 
REMARK       I    between atoms: C_22  and  N_20 
ROOT
ATOM      1  C   LIG d   1      -2.437  76.751 115.129  0.00  0.00     0.161 C 
ATOM      2  C   LIG d   1      -2.487  75.630 115.974  0.00  0.00     0.016 C 
ATOM      3  C   LIG d   1      -1.525  75.366 116.976  0.00  0.00     0.038 C 
ATOM      4  C   LIG d   1      -0.524  76.293 117.304  0.00  0.00     0.028 C 
ATOM      5  C   LIG d   1      -0.134  77.201 116.143  0.00  0.00    -0.047 C 
ATOM      6  C   LIG d   1      -1.415  77.829 115.546  0.00  0.00     0.091 C 
ENDROOT
BRANCH   1   7
ATOM      7  O   LIG d   1      -3.751  77.328 115.005  0.00  0.00    -0.368 OA
BRANCH   7   8
ATOM      8  C   LIG d   1      -4.835  76.581 115.609  0.00  0.00     0.119 C 
BRANCH   8   9
ATOM      9  C   LIG d   1      -5.710  76.029 114.467  0.00  0.00     0.028 C 
ATOM     10  C   LIG d   1      -5.396  74.559 114.144  0.00  0.00     0.006 C 
ENDBRANCH   8   9
BRANCH   8  11
ATOM     11  C   LIG d   1      -5.758  77.495 116.422  0.00  0.00     0.028 C 
ATOM     12  C   LIG d   1      -5.564  77.341 117.939  0.00  0.00     0.006 C 
ENDBRANCH   8  11
ENDBRANCH   7   8
ENDBRANCH   1   7
BRANCH   6  13
ATOM     13  N   LIG d   1      -1.131  78.667 114.351  0.00  0.00    -0.311 N 
ATOM     14  C   LIG d   1      -0.953  79.985 114.406  0.00  0.00     0.210 C 
ATOM     15  C   LIG d   1      -0.692  80.659 113.055  0.00  0.00     0.109 C 
ATOM     16  O   LIG d   1      -0.954  80.657 115.449  0.00  0.00    -0.276 OA
ATOM     17  H   LIG d   1      -1.082  78.198 113.468  0.00  0.00     0.149 HD
ENDBRANCH   6  13
BRANCH   5  18
ATOM     18  N   LIG d   1       0.815  78.204 116.660  0.00  0.00     0.381 N 
ATOM     19  H   LIG d   1       0.962  78.917 115.974  0.00  0.00    -0.090 HD
ATOM     20  H   LIG d   1       1.695  77.755 116.843  0.00  0.00    -0.090 HD
ATOM     21  H   LIG d   1       0.460  78.609 117.499  0.00  0.00    -0.090 HD
ENDBRANCH   5  18
BRANCH   3  22
ATOM     22  C   LIG d   1      -1.535  74.147 117.635  0.00  0.00     0.382 C 
ATOM     23  O   LIG d   1      -2.087  74.045 118.757  0.00  0.00    -0.241 OA
ATOM     24  O   LIG d   1      -0.961  73.157 117.142  0.00  0.00    -0.241 OA
ENDBRANCH   3  22
TORSDOF 7
ENDMDL
MODEL 9
REMARK VINA RESULT:      -4.4     10.908     13.804
REMARK  7 active torsions:
REMARK  status: ('A' for Active; 'I' for Inactive)
REMARK    1  A    between atoms: C_2  and  C_3 
REMARK    2  A    between atoms: C_3  and  O_6 
REMARK    3  A    between atoms: C_3  and  C_4 
REMARK    4  A    between atoms: C_7  and  O_6 
REMARK    5  A    between atoms: C_9  and  C_10 
REMARK    6  A    between atoms: N_15  and  C_14 
REMARK    7  A    between atoms: N_20  and  C_19 
REMARK       I    between atoms: C_22  and  N_20 
ROOT
ATOM      1  C   LIG d   1       2.908  86.664 116.214  0.00  0.00     0.161 C 
ATOM      2  C   LIG d   1       2.938  87.928 115.602  0.00  0.00     0.016 C 
ATOM      3  C   LIG d   1       4.131  88.648 115.360  0.00  0.00     0.038 C 
ATOM      4  C   LIG d   1       5.396  88.082 115.578  0.00  0.00     0.028 C 
ATOM      5  C   LIG d   1       5.400  87.009 116.663  0.00  0.00    -0.047 C 
ATOM      6  C   LIG d   1       4.286  85.983 116.358  0.00  0.00     0.091 C 
ENDROOT
BRANCH   1   7
ATOM      7  O   LIG d   1       1.994  85.801 115.509  0.00  0.00    -0.368 OA
BRANCH   7   8
ATOM      8  C   LIG d   1       0.642  85.745 116.028  0.00  0.00     0.119 C 
BRANCH   8   9
ATOM      9  C   LIG d   1       0.547  84.507 116.940  0.00  0.00     0.028 C 
ATOM     10  C   LIG d   1      -0.694  83.650 116.637  0.00  0.00     0.006 C 
ENDBRANCH   8   9
BRANCH   8  11
ATOM     11  C   LIG d   1      -0.375  85.504 114.909  0.00  0.00     0.028 C 
ATOM     12  C   LIG d   1       0.273  85.452 113.516  0.00  0.00     0.006 C 
ENDBRANCH   8  11
ENDBRANCH   7   8
ENDBRANCH   1   7
BRANCH   6  13
ATOM     13  N   LIG d   1       4.166  84.945 117.415  0.00  0.00    -0.311 N 
ATOM     14  C   LIG d   1       4.350  83.645 117.191  0.00  0.00     0.210 C 
ATOM     15  C   LIG d   1       4.159  82.745 118.415  0.00  0.00     0.109 C 
ATOM     16  O   LIG d   1       4.685  83.156 116.102  0.00  0.00    -0.276 OA
ATOM     17  H   LIG d   1       3.927  85.258 118.336  0.00  0.00     0.149 HD
ENDBRANCH   6  13
BRANCH   5  18
ATOM     18  N   LIG d   1       6.747  86.409 116.690  0.00  0.00     0.381 N 
ATOM     19  H   LIG d   1       7.440  87.131 116.684  0.00  0.00    -0.090 HD
ATOM     20  H   LIG d   1       6.870  85.848 115.865  0.00  0.00    -0.090 HD
ATOM     21  H   LIG d   1       6.852  85.844 117.504  0.00  0.00    -0.090 HD
ENDBRANCH   5  18
BRANCH   3  22
ATOM     22  C   LIG d   1       4.064  89.965 114.931  0.00  0.00     0.382 C 
ATOM     23  O   LIG d   1       4.011  90.895 115.771  0.00  0.00    -0.241 OA
ATOM     24  O   LIG d   1       4.011  90.231 113.715  0.00  0.00    -0.241 OA
ENDBRANCH   3  22
TORSDOF 7
ENDMDL
