MODEL 1
REMARK VINA RESULT:      -6.0      0.000      0.000
REMARK  7 active torsions:
REMARK  status: ('A' for Active; 'I' for Inactive)
REMARK    1  A    between atoms: C_2  and  C_3 
REMARK    2  A    between atoms: C_3  and  O_6 
REMARK    3  A    between atoms: C_3  and  C_4 
REMARK    4  A    between atoms: C_7  and  O_6 
REMARK    5  A    between atoms: C_9  and  C_10 
REMARK    6  A    between atoms: N_15  and  C_14 
REMARK    7  A    between atoms: N_20  and  C_19 
REMARK       I    between atoms: C_22  and  N_20 
ROOT
ATOM      1  C   LIG d   1      -5.075  92.173 117.594  0.00  0.00     0.161 C 
ATOM      2  C   LIG d   1      -4.749  92.752 118.831  0.00  0.00     0.016 C 
ATOM      3  C   LIG d   1      -5.631  93.583 119.559  0.00  0.00     0.038 C 
ATOM      4  C   LIG d   1      -6.965  93.771 119.166  0.00  0.00     0.028 C 
ATOM      5  C   LIG d   1      -7.182  93.616 117.665  0.00  0.00    -0.047 C 
ATOM      6  C   LIG d   1      -6.564  92.277 117.204  0.00  0.00     0.091 C 
ENDROOT
BRANCH   1   7
ATOM      7  O   LIG d   1      -4.644  90.798 117.569  0.00  0.00    -0.368 OA
BRANCH   7   8
ATOM      8  C   LIG d   1      -3.328  90.532 118.112  0.00  0.00     0.119 C 
BRANCH   8   9
ATOM      9  C   LIG d   1      -2.295  91.118 117.130  0.00  0.00     0.028 C 
ATOM     10  C   LIG d   1      -1.137  91.829 117.852  0.00  0.00     0.006 C 
ENDBRANCH   8   9
BRANCH   8  11
ATOM     11  C   LIG d   1      -3.037  89.029 118.157  0.00  0.00     0.028 C 
ATOM     12  C   LIG d   1      -2.861  88.499 119.589  0.00  0.00     0.006 C 
ENDBRANCH   8  11
ENDBRANCH   7   8
ENDBRANCH   1   7
BRANCH   6  13
ATOM     13  N   LIG d   1      -6.658  92.085 115.733  0.00  0.00    -0.311 N 
ATOM     14  C   LIG d   1      -7.231  91.024 115.167  0.00  0.00     0.210 C 
ATOM     15  C   LIG d   1      -7.203  91.014 113.635  0.00  0.00     0.109 C 
ATOM     16  O   LIG d   1      -7.788  90.106 115.787  0.00  0.00    -0.276 OA
ATOM     17  H   LIG d   1      -6.259  92.798 115.154  0.00  0.00     0.149 HD
ENDBRANCH   6  13
BRANCH   5  18
ATOM     18  N   LIG d   1      -8.633  93.700 117.413  0.00  0.00     0.381 N 
ATOM     19  H   LIG d   1      -9.037  92.786 117.451  0.00  0.00    -0.090 HD
ATOM     20  H   LIG d   1      -8.783  94.073 116.492  0.00  0.00    -0.090 HD
ATOM     21  H   LIG d   1      -9.064  94.289 118.092  0.00  0.00    -0.090 HD
ENDBRANCH   5  18
BRANCH   3  22
ATOM     22  C   LIG d   1      -5.169  94.269 120.671  0.00  0.00     0.382 C 
ATOM     23  O   LIG d   1      -4.166  93.848 121.296  0.00  0.00    -0.241 OA
ATOM     24  O   LIG d   1      -5.770  95.279 121.085  0.00  0.00    -0.241 OA
ENDBRANCH   3  22
TORSDOF 7
ENDMDL
MODEL 2
REMARK VINA RESULT:      -5.8      1.773      4.993
REMARK  7 active torsions:
REMARK  status: ('A' for Active; 'I' for Inactive)
REMARK    1  A    between atoms: C_2  and  C_3 
REMARK    2  A    between atoms: C_3  and  O_6 
REMARK    3  A    between atoms: C_3  and  C_4 
REMARK    4  A    between atoms: C_7  and  O_6 
REMARK    5  A    between atoms: C_9  and  C_10 
REMARK    6  A    between atoms: N_15  and  C_14 
REMARK    7  A    between atoms: N_20  and  C_19 
REMARK       I    between atoms: C_22  and  N_20 
ROOT
ATOM      1  C   LIG d   1      -4.343  91.792 117.352  0.00  0.00     0.161 C 
ATOM      2  C   LIG d   1      -5.065  91.305 116.249  0.00  0.00     0.016 C 
ATOM      3  C   LIG d   1      -6.415  91.638 115.994  0.00  0.00     0.038 C 
ATOM      4  C   LIG d   1      -7.094  92.608 116.747  0.00  0.00     0.028 C 
ATOM      5  C   LIG d   1      -6.566  92.748 118.171  0.00  0.00    -0.047 C 
ATOM      6  C   LIG d   1      -5.033  92.937 118.121  0.00  0.00     0.091 C 
ENDROOT
BRANCH   1   7
ATOM      7  O   LIG d   1      -3.023  92.192 116.933  0.00  0.00    -0.368 OA
BRANCH   7   8
ATOM      8  C   LIG d   1      -1.971  91.215 117.120  0.00  0.00     0.119 C 
BRANCH   8   9
ATOM      9  C   LIG d   1      -2.319  90.394 118.377  0.00  0.00     0.028 C 
ATOM     10  C   LIG d   1      -2.337  88.881 118.104  0.00  0.00     0.006 C 
ENDBRANCH   8   9
BRANCH   8  11
ATOM     11  C   LIG d   1      -0.632  91.890 117.435  0.00  0.00     0.028 C 
ATOM     12  C   LIG d   1      -0.631  93.391 117.106  0.00  0.00     0.006 C 
ENDBRANCH   8  11
ENDBRANCH   7   8
ENDBRANCH   1   7
BRANCH   6  13
ATOM     13  N   LIG d   1      -4.425  92.998 119.476  0.00  0.00    -0.311 N 
ATOM     14  C   LIG d   1      -3.568  93.946 119.853  0.00  0.00     0.210 C 
ATOM     15  C   LIG d   1      -3.046  93.812 121.287  0.00  0.00     0.109 C 
ATOM     16  O   LIG d   1      -3.217  94.903 119.148  0.00  0.00    -0.276 OA
ATOM     17  H   LIG d   1      -4.680  92.278 120.123  0.00  0.00     0.149 HD
ENDBRANCH   6  13
BRANCH   5  18
ATOM     18  N   LIG d   1      -7.269  93.885 118.797  0.00  0.00     0.381 N 
ATOM     19  H   LIG d   1      -7.882  94.312 118.131  0.00  0.00    -0.090 HD
ATOM     20  H   LIG d   1      -6.590  94.568 119.084  0.00  0.00    -0.090 HD
ATOM     21  H   LIG d   1      -7.790  93.571 119.586  0.00  0.00    -0.090 HD
ENDBRANCH   5  18
BRANCH   3  22
ATOM     22  C   LIG d   1      -7.112  90.969 115.000  0.00  0.00     0.382 C 
ATOM     23  O   LIG d   1      -7.052  91.371 113.813  0.00  0.00    -0.241 OA
ATOM     24  O   LIG d   1      -7.836  89.995 115.282  0.00  0.00    -0.241 OA
ENDBRANCH   3  22
TORSDOF 7
ENDMDL
MODEL 3
REMARK VINA RESULT:      -5.4     13.980     16.555
REMARK  7 active torsions:
REMARK  status: ('A' for Active; 'I' for Inactive)
REMARK    1  A    between atoms: C_2  and  C_3 
REMARK    2  A    between atoms: C_3  and  O_6 
REMARK    3  A    between atoms: C_3  and  C_4 
REMARK    4  A    between atoms: C_7  and  O_6 
REMARK    5  A    between atoms: C_9  and  C_10 
REMARK    6  A    between atoms: N_15  and  C_14 
REMARK    7  A    between atoms: N_20  and  C_19 
REMARK       I    between atoms: C_22  and  N_20 
ROOT
ATOM      1  C   LIG d   1      -3.310  77.051 116.567  0.00  0.00     0.161 C 
ATOM      2  C   LIG d   1      -3.426  78.119 115.662  0.00  0.00     0.016 C 
ATOM      3  C   LIG d   1      -2.386  78.517 114.790  0.00  0.00     0.038 C 
ATOM      4  C   LIG d   1      -1.204  77.773 114.658  0.00  0.00     0.028 C 
ATOM      5  C   LIG d   1      -0.841  76.986 115.913  0.00  0.00    -0.047 C 
ATOM      6  C   LIG d   1      -2.069  76.159 116.359  0.00  0.00     0.091 C 
ENDROOT
BRANCH   1   7
ATOM      7  O   LIG d   1      -4.510  76.254 116.539  0.00  0.00    -0.368 OA
BRANCH   7   8
ATOM      8  C   LIG d   1      -5.477  76.593 115.515  0.00  0.00     0.119 C 
BRANCH   8   9
ATOM      9  C   LIG d   1      -6.880  76.438 116.133  0.00  0.00     0.028 C 
ATOM     10  C   LIG d   1      -7.060  77.288 117.402  0.00  0.00     0.006 C 
ENDBRANCH   8   9
BRANCH   8  11
ATOM     11  C   LIG d   1      -5.433  75.595 114.354  0.00  0.00     0.028 C 
ATOM     12  C   LIG d   1      -4.939  74.204 114.783  0.00  0.00     0.006 C 
ENDBRANCH   8  11
ENDBRANCH   7   8
ENDBRANCH   1   7
BRANCH   6  13
ATOM     13  N   LIG d   1      -1.826  75.424 117.628  0.00  0.00    -0.311 N 
ATOM     14  C   LIG d   1      -1.357  74.178 117.674  0.00  0.00     0.210 C 
ATOM     15  C   LIG d   1      -1.199  73.599 119.084  0.00  0.00     0.109 C 
ATOM     16  O   LIG d   1      -1.026  73.509 116.684  0.00  0.00    -0.276 OA
ATOM     17  H   LIG d   1      -2.037  75.903 118.481  0.00  0.00     0.149 HD
ENDBRANCH   6  13
BRANCH   5  18
ATOM     18  N   LIG d   1       0.332  76.151 115.591  0.00  0.00     0.381 N 
ATOM     19  H   LIG d   1       0.839  76.558 114.831  0.00  0.00    -0.090 HD
ATOM     20  H   LIG d   1       0.015  75.241 115.306  0.00  0.00    -0.090 HD
ATOM     21  H   LIG d   1       0.923  76.071 116.389  0.00  0.00    -0.090 HD
ENDBRANCH   5  18
BRANCH   3  22
ATOM     22  C   LIG d   1      -2.508  79.694 114.068  0.00  0.00     0.382 C 
ATOM     23  O   LIG d   1      -3.571  80.358 114.125  0.00  0.00    -0.241 OA
ATOM     24  O   LIG d   1      -1.584  80.078 113.326  0.00  0.00    -0.241 OA
ENDBRANCH   3  22
TORSDOF 7
ENDMDL
MODEL 4
REMARK VINA RESULT:      -5.2     12.824     15.366
REMARK  7 active torsions:
REMARK  status: ('A' for Active; 'I' for Inactive)
REMARK    1  A    between atoms: C_2  and  C_3 
REMARK    2  A    between atoms: C_3  and  O_6 
REMARK    3  A    between atoms: C_3  and  C_4 
REMARK    4  A    between atoms: C_7  and  O_6 
REMARK    5  A    between atoms: C_9  and  C_10 
REMARK    6  A    between atoms: N_15  and  C_14 
REMARK    7  A    between atoms: N_20  and  C_19 
REMARK       I    between atoms: C_22  and  N_20 
ROOT
ATOM      1  C   LIG d   1      -7.631  77.159 117.700  0.00  0.00     0.161 C 
ATOM      2  C   LIG d   1      -8.831  76.438 117.592  0.00  0.00     0.016 C 
ATOM      3  C   LIG d   1     -10.052  76.869 118.160  0.00  0.00     0.038 C 
ATOM      4  C   LIG d   1     -10.189  78.135 118.748  0.00  0.00     0.028 C 
ATOM      5  C   LIG d   1      -8.886  78.680 119.324  0.00  0.00    -0.047 C 
ATOM      6  C   LIG d   1      -7.785  78.595 118.243  0.00  0.00     0.091 C 
ENDROOT
BRANCH   1   7
ATOM      7  O   LIG d   1      -6.954  77.175 116.427  0.00  0.00    -0.368 OA
BRANCH   7   8
ATOM      8  C   LIG d   1      -5.898  76.198 116.254  0.00  0.00     0.119 C 
BRANCH   8   9
ATOM      9  C   LIG d   1      -4.556  76.927 116.455  0.00  0.00     0.028 C 
ATOM     10  C   LIG d   1      -3.881  76.558 117.786  0.00  0.00     0.006 C 
ENDBRANCH   8   9
BRANCH   8  11
ATOM     11  C   LIG d   1      -5.861  75.666 114.819  0.00  0.00     0.028 C 
ATOM     12  C   LIG d   1      -5.032  74.379 114.681  0.00  0.00     0.006 C 
ENDBRANCH   8  11
ENDBRANCH   7   8
ENDBRANCH   1   7
BRANCH   6  13
ATOM     13  N   LIG d   1      -6.458  79.030 118.750  0.00  0.00    -0.311 N 
ATOM     14  C   LIG d   1      -5.734  79.992 118.180  0.00  0.00     0.210 C 
ATOM     15  C   LIG d   1      -4.385  80.270 118.851  0.00  0.00     0.109 C 
ATOM     16  O   LIG d   1      -6.095  80.663 117.202  0.00  0.00    -0.276 OA
ATOM     17  H   LIG d   1      -6.102  78.559 119.559  0.00  0.00     0.149 HD
ENDBRANCH   6  13
BRANCH   5  18
ATOM     18  N   LIG d   1      -9.143  80.058 119.782  0.00  0.00     0.381 N 
ATOM     19  H   LIG d   1      -8.912  80.142 120.751  0.00  0.00    -0.090 HD
ATOM     20  H   LIG d   1     -10.121  80.261 119.672  0.00  0.00    -0.090 HD
ATOM     21  H   LIG d   1      -8.602  80.701 119.247  0.00  0.00    -0.090 HD
ENDBRANCH   5  18
BRANCH   3  22
ATOM     22  C   LIG d   1     -11.143  76.014 118.176  0.00  0.00     0.382 C 
ATOM     23  O   LIG d   1     -11.096  74.926 117.552  0.00  0.00    -0.241 OA
ATOM     24  O   LIG d   1     -12.189  76.335 118.771  0.00  0.00    -0.241 OA
ENDBRANCH   3  22
TORSDOF 7
ENDMDL
MODEL 5
REMARK VINA RESULT:      -5.2     13.820     16.246
REMARK  7 active torsions:
REMARK  status: ('A' for Active; 'I' for Inactive)
REMARK    1  A    between atoms: C_2  and  C_3 
REMARK    2  A    between atoms: C_3  and  O_6 
REMARK    3  A    between atoms: C_3  and  C_4 
REMARK    4  A    between atoms: C_7  and  O_6 
REMARK    5  A    between atoms: C_9  and  C_10 
REMARK    6  A    between atoms: N_15  and  C_14 
REMARK    7  A    between atoms: N_20  and  C_19 
REMARK       I    between atoms: C_22  and  N_20 
ROOT
ATOM      1  C   LIG d   1      -7.037  77.105 117.088  0.00  0.00     0.161 C 
ATOM      2  C   LIG d   1      -6.747  76.442 115.884  0.00  0.00     0.016 C 
ATOM      3  C   LIG d   1      -5.437  76.293 115.375  0.00  0.00     0.038 C 
ATOM      4  C   LIG d   1      -4.306  76.667 116.115  0.00  0.00     0.028 C 
ATOM      5  C   LIG d   1      -4.577  77.794 117.106  0.00  0.00    -0.047 C 
ATOM      6  C   LIG d   1      -5.808  77.422 117.965  0.00  0.00     0.091 C 
ENDROOT
BRANCH   1   7
ATOM      7  O   LIG d   1      -8.007  76.350 117.841  0.00  0.00    -0.368 OA
BRANCH   7   8
ATOM      8  C   LIG d   1      -9.384  76.785 117.725  0.00  0.00     0.119 C 
BRANCH   8   9
ATOM      9  C   LIG d   1      -9.721  77.597 118.991  0.00  0.00     0.028 C 
ATOM     10  C   LIG d   1      -9.792  79.109 118.718  0.00  0.00     0.006 C 
ENDBRANCH   8   9
BRANCH   8  11
ATOM     11  C   LIG d   1     -10.348  75.596 117.737  0.00  0.00     0.028 C 
ATOM     12  C   LIG d   1     -11.718  75.945 118.339  0.00  0.00     0.006 C 
ENDBRANCH   8  11
ENDBRANCH   7   8
ENDBRANCH   1   7
BRANCH   6  13
ATOM     13  N   LIG d   1      -6.193  78.508 118.904  0.00  0.00    -0.311 N 
ATOM     14  C   LIG d   1      -6.253  78.348 120.225  0.00  0.00     0.210 C 
ATOM     15  C   LIG d   1      -6.691  79.590 121.007  0.00  0.00     0.109 C 
ATOM     16  O   LIG d   1      -5.955  77.304 120.825  0.00  0.00    -0.276 OA
ATOM     17  H   LIG d   1      -6.421  79.397 118.504  0.00  0.00     0.149 HD
ENDBRANCH   6  13
BRANCH   5  18
ATOM     18  N   LIG d   1      -3.352  77.989 117.905  0.00  0.00     0.381 N 
ATOM     19  H   LIG d   1      -2.693  77.266 117.696  0.00  0.00    -0.090 HD
ATOM     20  H   LIG d   1      -3.587  77.929 118.881  0.00  0.00    -0.090 HD
ATOM     21  H   LIG d   1      -2.954  78.880 117.707  0.00  0.00    -0.090 HD
ENDBRANCH   5  18
BRANCH   3  22
ATOM     22  C   LIG d   1      -5.250  75.799 114.092  0.00  0.00     0.382 C 
ATOM     23  O   LIG d   1      -5.678  76.444 113.104  0.00  0.00    -0.241 OA
ATOM     24  O   LIG d   1      -4.700  74.696 113.914  0.00  0.00    -0.241 OA
ENDBRANCH   3  22
TORSDOF 7
ENDMDL
MODEL 6
REMARK VINA RESULT:      -5.1      2.381      4.187
REMARK  7 active torsions:
REMARK  status: ('A' for Active; 'I' for Inactive)
REMARK    1  A    between atoms: C_2  and  C_3 
REMARK    2  A    between atoms: C_3  and  O_6 
REMARK    3  A    between atoms: C_3  and  C_4 
REMARK    4  A    between atoms: C_7  and  O_6 
REMARK    5  A    between atoms: C_9  and  C_10 
REMARK    6  A    between atoms: N_15  and  C_14 
REMARK    7  A    between atoms: N_20  and  C_19 
REMARK       I    between atoms: C_22  and  N_20 
ROOT
ATOM      1  C   LIG d   1      -4.188  93.155 118.758  0.00  0.00     0.161 C 
ATOM      2  C   LIG d   1      -5.506  93.574 119.007  0.00  0.00     0.016 C 
ATOM      3  C   LIG d   1      -6.618  93.138 118.250  0.00  0.00     0.038 C 
ATOM      4  C   LIG d   1      -6.506  92.130 117.281  0.00  0.00     0.028 C 
ATOM      5  C   LIG d   1      -5.119  92.045 116.652  0.00  0.00    -0.047 C 
ATOM      6  C   LIG d   1      -4.061  91.970 117.777  0.00  0.00     0.091 C 
ENDROOT
BRANCH   1   7
ATOM      7  O   LIG d   1      -3.529  92.848 120.002  0.00  0.00    -0.368 OA
BRANCH   7   8
ATOM      8  C   LIG d   1      -2.491  93.769 120.418  0.00  0.00     0.119 C 
BRANCH   8   9
ATOM      9  C   LIG d   1      -2.251  94.751 119.255  0.00  0.00     0.028 C 
ATOM     10  C   LIG d   1      -0.793  94.738 118.767  0.00  0.00     0.006 C 
ENDBRANCH   8   9
BRANCH   8  11
ATOM     11  C   LIG d   1      -1.156  93.048 120.622  0.00  0.00     0.028 C 
ATOM     12  C   LIG d   1      -1.326  91.622 121.169  0.00  0.00     0.006 C 
ENDBRANCH   8  11
ENDBRANCH   7   8
ENDBRANCH   1   7
BRANCH   6  13
ATOM     13  N   LIG d   1      -2.672  91.969 117.250  0.00  0.00    -0.311 N 
ATOM     14  C   LIG d   1      -1.794  90.999 117.499  0.00  0.00     0.210 C 
ATOM     15  C   LIG d   1      -0.410  91.204 116.875  0.00  0.00     0.109 C 
ATOM     16  O   LIG d   1      -2.040  89.972 118.149  0.00  0.00    -0.276 OA
ATOM     17  H   LIG d   1      -2.398  92.750 116.686  0.00  0.00     0.149 HD
ENDBRANCH   6  13
BRANCH   5  18
ATOM     18  N   LIG d   1      -5.103  90.867 115.765  0.00  0.00     0.381 N 
ATOM     19  H   LIG d   1      -5.557  90.097 116.215  0.00  0.00    -0.090 HD
ATOM     20  H   LIG d   1      -4.149  90.609 115.584  0.00  0.00    -0.090 HD
ATOM     21  H   LIG d   1      -5.566  91.080 114.908  0.00  0.00    -0.090 HD
ENDBRANCH   5  18
BRANCH   3  22
ATOM     22  C   LIG d   1      -7.852  93.743 118.432  0.00  0.00     0.382 C 
ATOM     23  O   LIG d   1      -8.098  94.359 119.496  0.00  0.00    -0.241 OA
ATOM     24  O   LIG d   1      -8.739  93.641 117.563  0.00  0.00    -0.241 OA
ENDBRANCH   3  22
TORSDOF 7
ENDMDL
MODEL 7
REMARK VINA RESULT:      -5.1      3.300      5.259
REMARK  7 active torsions:
REMARK  status: ('A' for Active; 'I' for Inactive)
REMARK    1  A    between atoms: C_2  and  C_3 
REMARK    2  A    between atoms: C_3  and  O_6 
REMARK    3  A    between atoms: C_3  and  C_4 
REMARK    4  A    between atoms: C_7  and  O_6 
REMARK    5  A    between atoms: C_9  and  C_10 
REMARK    6  A    between atoms: N_15  and  C_14 
REMARK    7  A    between atoms: N_20  and  C_19 
REMARK       I    between atoms: C_22  and  N_20 
ROOT
ATOM      1  C   LIG d   1      -0.879  90.914 116.878  0.00  0.00     0.161 C 
ATOM      2  C   LIG d   1       0.428  91.296 117.224  0.00  0.00     0.016 C 
ATOM      3  C   LIG d   1       0.756  92.568 117.745  0.00  0.00     0.038 C 
ATOM      4  C   LIG d   1      -0.231  93.500 118.100  0.00  0.00     0.028 C 
ATOM      5  C   LIG d   1      -1.521  93.351 117.300  0.00  0.00    -0.047 C 
ATOM      6  C   LIG d   1      -1.983  91.878 117.363  0.00  0.00     0.091 C 
ENDROOT
BRANCH   1   7
ATOM      7  O   LIG d   1      -1.139  89.577 117.350  0.00  0.00    -0.368 OA
BRANCH   7   8
ATOM      8  C   LIG d   1      -1.566  89.459 118.729  0.00  0.00     0.119 C 
BRANCH   8   9
ATOM      9  C   LIG d   1      -0.571  88.524 119.443  0.00  0.00     0.028 C 
ATOM     10  C   LIG d   1       0.067  87.504 118.486  0.00  0.00     0.006 C 
ENDBRANCH   8   9
BRANCH   8  11
ATOM     11  C   LIG d   1      -2.925  88.761 118.834  0.00  0.00     0.028 C 
ATOM     12  C   LIG d   1      -3.177  88.153 120.222  0.00  0.00     0.006 C 
ENDBRANCH   8  11
ENDBRANCH   7   8
ENDBRANCH   1   7
BRANCH   6  13
ATOM     13  N   LIG d   1      -3.192  91.627 116.536  0.00  0.00    -0.311 N 
ATOM     14  C   LIG d   1      -4.433  91.672 117.019  0.00  0.00     0.210 C 
ATOM     15  C   LIG d   1      -5.535  91.363 116.001  0.00  0.00     0.109 C 
ATOM     16  O   LIG d   1      -4.726  91.971 118.187  0.00  0.00    -0.276 OA
ATOM     17  H   LIG d   1      -3.047  91.409 115.570  0.00  0.00     0.149 HD
ENDBRANCH   6  13
BRANCH   5  18
ATOM     18  N   LIG d   1      -2.507  94.291 117.866  0.00  0.00     0.381 N 
ATOM     19  H   LIG d   1      -2.929  93.890 118.680  0.00  0.00    -0.090 HD
ATOM     20  H   LIG d   1      -3.228  94.455 117.185  0.00  0.00    -0.090 HD
ATOM     21  H   LIG d   1      -2.063  95.150 118.103  0.00  0.00    -0.090 HD
ENDBRANCH   5  18
BRANCH   3  22
ATOM     22  C   LIG d   1       2.086  92.935 117.879  0.00  0.00     0.382 C 
ATOM     23  O   LIG d   1       2.421  93.775 118.749  0.00  0.00    -0.241 OA
ATOM     24  O   LIG d   1       2.950  92.469 117.112  0.00  0.00    -0.241 OA
ENDBRANCH   3  22
TORSDOF 7
ENDMDL
MODEL 8
REMARK VINA RESULT:      -4.9     11.386     13.951
REMARK  7 active torsions:
REMARK  status: ('A' for Active; 'I' for Inactive)
REMARK    1  A    between atoms: C_2  and  C_3 
REMARK    2  A    between atoms: C_3  and  O_6 
REMARK    3  A    between atoms: C_3  and  C_4 
REMARK    4  A    between atoms: C_7  and  O_6 
REMARK    5  A    between atoms: C_9  and  C_10 
REMARK    6  A    between atoms: N_15  and  C_14 
REMARK    7  A    between atoms: N_20  and  C_19 
REMARK       I    between atoms: C_22  and  N_20 
ROOT
ATOM      1  C   LIG d   1      -7.112  79.509 119.151  0.00  0.00     0.161 C 
ATOM      2  C   LIG d   1      -5.969  79.696 118.355  0.00  0.00     0.016 C 
ATOM      3  C   LIG d   1      -5.589  78.812 117.319  0.00  0.00     0.038 C 
ATOM      4  C   LIG d   1      -6.415  77.756 116.906  0.00  0.00     0.028 C 
ATOM      5  C   LIG d   1      -7.328  77.233 118.010  0.00  0.00    -0.047 C 
ATOM      6  C   LIG d   1      -8.084  78.424 118.642  0.00  0.00     0.091 C 
ENDROOT
BRANCH   1   7
ATOM      7  O   LIG d   1      -7.803  80.764 119.315  0.00  0.00    -0.368 OA
BRANCH   7   8
ATOM      8  C   LIG d   1      -8.559  81.230 118.171  0.00  0.00     0.119 C 
BRANCH   8   9
ATOM      9  C   LIG d   1      -8.010  82.617 117.787  0.00  0.00     0.028 C 
ATOM     10  C   LIG d   1      -7.594  83.444 119.015  0.00  0.00     0.006 C 
ENDBRANCH   8   9
BRANCH   8  11
ATOM     11  C   LIG d   1     -10.030  81.461 118.532  0.00  0.00     0.028 C 
ATOM     12  C   LIG d   1     -10.796  82.231 117.445  0.00  0.00     0.006 C 
ENDBRANCH   8  11
ENDBRANCH   7   8
ENDBRANCH   1   7
BRANCH   6  13
ATOM     13  N   LIG d   1      -8.936  78.011 119.787  0.00  0.00    -0.311 N 
ATOM     14  C   LIG d   1     -10.233  77.730 119.672  0.00  0.00     0.210 C 
ATOM     15  C   LIG d   1     -10.930  77.344 120.980  0.00  0.00     0.109 C 
ATOM     16  O   LIG d   1     -10.865  77.733 118.605  0.00  0.00    -0.276 OA
ATOM     17  H   LIG d   1      -8.497  77.953 120.685  0.00  0.00     0.149 HD
ENDBRANCH   6  13
BRANCH   5  18
ATOM     18  N   LIG d   1      -8.228  76.232 117.407  0.00  0.00     0.381 N 
ATOM     19  H   LIG d   1      -8.880  75.906 118.092  0.00  0.00    -0.090 HD
ATOM     20  H   LIG d   1      -7.681  75.449 117.095  0.00  0.00    -0.090 HD
ATOM     21  H   LIG d   1      -8.717  76.633 116.637  0.00  0.00    -0.090 HD
ENDBRANCH   5  18
BRANCH   3  22
ATOM     22  C   LIG d   1      -4.352  78.958 116.710  0.00  0.00     0.382 C 
ATOM     23  O   LIG d   1      -4.136  78.428 115.594  0.00  0.00    -0.241 OA
ATOM     24  O   LIG d   1      -3.435  79.576 117.284  0.00  0.00    -0.241 OA
ENDBRANCH   3  22
TORSDOF 7
ENDMDL
MODEL 9
REMARK VINA RESULT:      -4.6     18.642     20.359
REMARK  7 active torsions:
REMARK  status: ('A' for Active; 'I' for Inactive)
REMARK    1  A    between atoms: C_2  and  C_3 
REMARK    2  A    between atoms: C_3  and  O_6 
REMARK    3  A    between atoms: C_3  and  C_4 
REMARK    4  A    between atoms: C_7  and  O_6 
REMARK    5  A    between atoms: C_9  and  C_10 
REMARK    6  A    between atoms: N_15  and  C_14 
REMARK    7  A    between atoms: N_20  and  C_19 
REMARK       I    between atoms: C_22  and  N_20 
ROOT
ATOM      1  C   LIG d   1     -22.301  83.780 115.125  0.00  0.00     0.161 C 
ATOM      2  C   LIG d   1     -21.932  85.090 114.779  0.00  0.00     0.016 C 
ATOM      3  C   LIG d   1     -22.795  85.992 114.115  0.00  0.00     0.038 C 
ATOM      4  C   LIG d   1     -24.146  85.693 113.886  0.00  0.00     0.028 C 
ATOM      5  C   LIG d   1     -24.424  84.199 113.765  0.00  0.00    -0.047 C 
ATOM      6  C   LIG d   1     -23.807  83.474 114.983  0.00  0.00     0.091 C 
ENDROOT
BRANCH   1   7
ATOM      7  O   LIG d   1     -21.853  83.484 116.463  0.00  0.00    -0.368 OA
BRANCH   7   8
ATOM      8  C   LIG d   1     -22.890  83.349 117.467  0.00  0.00     0.119 C 
BRANCH   8   9
ATOM      9  C   LIG d   1     -22.914  84.654 118.286  0.00  0.00     0.028 C 
ATOM     10  C   LIG d   1     -24.272  85.372 118.206  0.00  0.00     0.006 C 
ENDBRANCH   8   9
BRANCH   8  11
ATOM     11  C   LIG d   1     -22.550  82.245 118.472  0.00  0.00     0.028 C 
ATOM     12  C   LIG d   1     -23.780  81.427 118.897  0.00  0.00     0.006 C 
ENDBRANCH   8  11
ENDBRANCH   7   8
ENDBRANCH   1   7
BRANCH   6  13
ATOM     13  N   LIG d   1     -23.960  81.998 114.902  0.00  0.00    -0.311 N 
ATOM     14  C   LIG d   1     -25.003  81.340 115.404  0.00  0.00     0.210 C 
ATOM     15  C   LIG d   1     -24.954  79.819 115.229  0.00  0.00     0.109 C 
ATOM     16  O   LIG d   1     -25.981  81.874 115.949  0.00  0.00    -0.276 OA
ATOM     17  H   LIG d   1     -23.227  81.488 114.448  0.00  0.00     0.149 HD
ENDBRANCH   6  13
BRANCH   5  18
ATOM     18  N   LIG d   1     -25.885  84.023 113.667  0.00  0.00     0.381 N 
ATOM     19  H   LIG d   1     -26.141  83.837 112.718  0.00  0.00    -0.090 HD
ATOM     20  H   LIG d   1     -26.335  84.875 113.954  0.00  0.00    -0.090 HD
ATOM     21  H   LIG d   1     -26.178  83.271 114.252  0.00  0.00    -0.090 HD
ENDBRANCH   5  18
BRANCH   3  22
ATOM     22  C   LIG d   1     -22.296  87.195 113.637  0.00  0.00     0.382 C 
ATOM     23  O   LIG d   1     -21.184  87.226 113.057  0.00  0.00    -0.241 OA
ATOM     24  O   LIG d   1     -22.924  88.255 113.816  0.00  0.00    -0.241 OA
ENDBRANCH   3  22
TORSDOF 7
ENDMDL
