MODEL 1
REMARK VINA RESULT:      -5.9      0.000      0.000
REMARK  7 active torsions:
REMARK  status: ('A' for Active; 'I' for Inactive)
REMARK    1  A    between atoms: C_2  and  C_3 
REMARK    2  A    between atoms: C_3  and  O_6 
REMARK    3  A    between atoms: C_3  and  C_4 
REMARK    4  A    between atoms: C_7  and  O_6 
REMARK    5  A    between atoms: C_9  and  C_10 
REMARK    6  A    between atoms: N_15  and  C_14 
REMARK    7  A    between atoms: N_20  and  C_19 
REMARK       I    between atoms: C_22  and  N_20 
ROOT
ATOM      1  C   LIG d   1      -6.113  92.972 117.587  0.00  0.00     0.161 C 
ATOM      2  C   LIG d   1      -7.439  92.832 117.144  0.00  0.00     0.016 C 
ATOM      3  C   LIG d   1      -7.881  91.757 116.339  0.00  0.00     0.038 C 
ATOM      4  C   LIG d   1      -7.056  90.662 116.045  0.00  0.00     0.028 C 
ATOM      5  C   LIG d   1      -5.570  91.006 116.047  0.00  0.00    -0.047 C 
ATOM      6  C   LIG d   1      -5.224  91.729 117.369  0.00  0.00     0.091 C 
ENDROOT
BRANCH   1   7
ATOM      7  O   LIG d   1      -6.099  93.360 118.974  0.00  0.00    -0.368 OA
BRANCH   7   8
ATOM      8  C   LIG d   1      -5.736  94.736 119.247  0.00  0.00     0.119 C 
BRANCH   8   9
ATOM      9  C   LIG d   1      -4.865  94.742 120.519  0.00  0.00     0.028 C 
ATOM     10  C   LIG d   1      -4.783  93.356 121.180  0.00  0.00     0.006 C 
ENDBRANCH   8   9
BRANCH   8  11
ATOM     11  C   LIG d   1      -6.967  95.579 119.595  0.00  0.00     0.028 C 
ATOM     12  C   LIG d   1      -7.130  96.802 118.679  0.00  0.00     0.006 C 
ENDBRANCH   8  11
ENDBRANCH   7   8
ENDBRANCH   1   7
BRANCH   6  13
ATOM     13  N   LIG d   1      -3.807  92.175 117.417  0.00  0.00    -0.311 N 
ATOM     14  C   LIG d   1      -2.934  91.746 118.326  0.00  0.00     0.210 C 
ATOM     15  C   LIG d   1      -1.530  92.348 118.208  0.00  0.00     0.109 C 
ATOM     16  O   LIG d   1      -3.180  90.900 119.199  0.00  0.00    -0.276 OA
ATOM     17  H   LIG d   1      -3.514  92.838 116.726  0.00  0.00     0.149 HD
ENDBRANCH   6  13
BRANCH   5  18
ATOM     18  N   LIG d   1      -4.821  89.748 115.864  0.00  0.00     0.381 N 
ATOM     19  H   LIG d   1      -3.962  89.932 115.385  0.00  0.00    -0.090 HD
ATOM     20  H   LIG d   1      -5.369  89.123 115.299  0.00  0.00    -0.090 HD
ATOM     21  H   LIG d   1      -4.634  89.330 116.749  0.00  0.00    -0.090 HD
ENDBRANCH   5  18
BRANCH   3  22
ATOM     22  C   LIG d   1      -9.152  91.791 115.785  0.00  0.00     0.382 C 
ATOM     23  O   LIG d   1      -9.877  92.804 115.941  0.00  0.00    -0.241 OA
ATOM     24  O   LIG d   1      -9.600  90.805 115.170  0.00  0.00    -0.241 OA
ENDBRANCH   3  22
TORSDOF 7
ENDMDL
MODEL 2
REMARK VINA RESULT:      -5.8      0.987      1.789
REMARK  7 active torsions:
REMARK  status: ('A' for Active; 'I' for Inactive)
REMARK    1  A    between atoms: C_2  and  C_3 
REMARK    2  A    between atoms: C_3  and  O_6 
REMARK    3  A    between atoms: C_3  and  C_4 
REMARK    4  A    between atoms: C_7  and  O_6 
REMARK    5  A    between atoms: C_9  and  C_10 
REMARK    6  A    between atoms: N_15  and  C_14 
REMARK    7  A    between atoms: N_20  and  C_19 
REMARK       I    between atoms: C_22  and  N_20 
ROOT
ATOM      1  C   LIG d   1      -6.041  93.170 117.611  0.00  0.00     0.161 C 
ATOM      2  C   LIG d   1      -7.360  92.993 117.161  0.00  0.00     0.016 C 
ATOM      3  C   LIG d   1      -7.786  91.863 116.426  0.00  0.00     0.038 C 
ATOM      4  C   LIG d   1      -6.951  90.755 116.219  0.00  0.00     0.028 C 
ATOM      5  C   LIG d   1      -5.467  91.106 116.218  0.00  0.00    -0.047 C 
ATOM      6  C   LIG d   1      -5.143  91.921 117.491  0.00  0.00     0.091 C 
ENDROOT
BRANCH   1   7
ATOM      7  O   LIG d   1      -6.048  93.653 118.969  0.00  0.00    -0.368 OA
BRANCH   7   8
ATOM      8  C   LIG d   1      -6.311  92.665 119.995  0.00  0.00     0.119 C 
BRANCH   8   9
ATOM      9  C   LIG d   1      -7.533  93.148 120.801  0.00  0.00     0.028 C 
ATOM     10  C   LIG d   1      -7.856  94.630 120.545  0.00  0.00     0.006 C 
ENDBRANCH   8   9
BRANCH   8  11
ATOM     11  C   LIG d   1      -5.162  92.593 121.006  0.00  0.00     0.028 C 
ATOM     12  C   LIG d   1      -4.206  93.792 120.908  0.00  0.00     0.006 C 
ENDBRANCH   8  11
ENDBRANCH   7   8
ENDBRANCH   1   7
BRANCH   6  13
ATOM     13  N   LIG d   1      -3.729  92.378 117.527  0.00  0.00    -0.311 N 
ATOM     14  C   LIG d   1      -2.771  91.744 118.201  0.00  0.00     0.210 C 
ATOM     15  C   LIG d   1      -1.386  92.395 118.122  0.00  0.00     0.109 C 
ATOM     16  O   LIG d   1      -2.930  90.687 118.830  0.00  0.00    -0.276 OA
ATOM     17  H   LIG d   1      -3.506  93.210 117.018  0.00  0.00     0.149 HD
ENDBRANCH   6  13
BRANCH   5  18
ATOM     18  N   LIG d   1      -4.710  89.844 116.131  0.00  0.00     0.381 N 
ATOM     19  H   LIG d   1      -3.787  89.976 116.494  0.00  0.00    -0.090 HD
ATOM     20  H   LIG d   1      -4.633  89.576 115.165  0.00  0.00    -0.090 HD
ATOM     21  H   LIG d   1      -5.178  89.129 116.644  0.00  0.00    -0.090 HD
ENDBRANCH   5  18
BRANCH   3  22
ATOM     22  C   LIG d   1      -9.049  91.851 115.854  0.00  0.00     0.382 C 
ATOM     23  O   LIG d   1      -9.792  92.858 115.954  0.00  0.00    -0.241 OA
ATOM     24  O   LIG d   1      -9.473  90.831 115.278  0.00  0.00    -0.241 OA
ENDBRANCH   3  22
TORSDOF 7
ENDMDL
MODEL 3
REMARK VINA RESULT:      -5.6      2.416      4.218
REMARK  7 active torsions:
REMARK  status: ('A' for Active; 'I' for Inactive)
REMARK    1  A    between atoms: C_2  and  C_3 
REMARK    2  A    between atoms: C_3  and  O_6 
REMARK    3  A    between atoms: C_3  and  C_4 
REMARK    4  A    between atoms: C_7  and  O_6 
REMARK    5  A    between atoms: C_9  and  C_10 
REMARK    6  A    between atoms: N_15  and  C_14 
REMARK    7  A    between atoms: N_20  and  C_19 
REMARK       I    between atoms: C_22  and  N_20 
ROOT
ATOM      1  C   LIG d   1      -6.101  92.346 118.060  0.00  0.00     0.161 C 
ATOM      2  C   LIG d   1      -5.663  91.330 117.195  0.00  0.00     0.016 C 
ATOM      3  C   LIG d   1      -6.390  90.909 116.058  0.00  0.00     0.038 C 
ATOM      4  C   LIG d   1      -7.539  91.584 115.621  0.00  0.00     0.028 C 
ATOM      5  C   LIG d   1      -8.290  92.291 116.745  0.00  0.00    -0.047 C 
ATOM      6  C   LIG d   1      -7.296  93.170 117.538  0.00  0.00     0.091 C 
ENDROOT
BRANCH   1   7
ATOM      7  O   LIG d   1      -4.999  93.216 118.390  0.00  0.00    -0.368 OA
BRANCH   7   8
ATOM      8  C   LIG d   1      -4.279  92.899 119.606  0.00  0.00     0.119 C 
BRANCH   8   9
ATOM      9  C   LIG d   1      -4.827  93.811 120.720  0.00  0.00     0.028 C 
ATOM     10  C   LIG d   1      -4.441  95.285 120.515  0.00  0.00     0.006 C 
ENDBRANCH   8   9
BRANCH   8  11
ATOM     11  C   LIG d   1      -2.794  93.256 119.483  0.00  0.00     0.028 C 
ATOM     12  C   LIG d   1      -2.302  93.267 118.028  0.00  0.00     0.006 C 
ENDBRANCH   8  11
ENDBRANCH   7   8
ENDBRANCH   1   7
BRANCH   6  13
ATOM     13  N   LIG d   1      -7.932  93.831 118.707  0.00  0.00    -0.311 N 
ATOM     14  C   LIG d   1      -7.810  95.131 118.970  0.00  0.00     0.210 C 
ATOM     15  C   LIG d   1      -8.530  95.605 120.236  0.00  0.00     0.109 C 
ATOM     16  O   LIG d   1      -7.201  95.943 118.257  0.00  0.00    -0.276 OA
ATOM     17  H   LIG d   1      -8.471  93.252 119.321  0.00  0.00     0.149 HD
ENDBRANCH   6  13
BRANCH   5  18
ATOM     18  N   LIG d   1      -9.385  93.066 116.130  0.00  0.00     0.381 N 
ATOM     19  H   LIG d   1      -9.010  93.862 115.653  0.00  0.00    -0.090 HD
ATOM     20  H   LIG d   1      -9.998  93.393 116.856  0.00  0.00    -0.090 HD
ATOM     21  H   LIG d   1      -9.890  92.494 115.490  0.00  0.00    -0.090 HD
ENDBRANCH   5  18
BRANCH   3  22
ATOM     22  C   LIG d   1      -5.990  89.775 115.368  0.00  0.00     0.382 C 
ATOM     23  O   LIG d   1      -6.581  89.443 114.312  0.00  0.00    -0.241 OA
ATOM     24  O   LIG d   1      -5.075  89.056 115.811  0.00  0.00    -0.241 OA
ENDBRANCH   3  22
TORSDOF 7
ENDMDL
MODEL 4
REMARK VINA RESULT:      -5.3      2.242      5.616
REMARK  7 active torsions:
REMARK  status: ('A' for Active; 'I' for Inactive)
REMARK    1  A    between atoms: C_2  and  C_3 
REMARK    2  A    between atoms: C_3  and  O_6 
REMARK    3  A    between atoms: C_3  and  C_4 
REMARK    4  A    between atoms: C_7  and  O_6 
REMARK    5  A    between atoms: C_9  and  C_10 
REMARK    6  A    between atoms: N_15  and  C_14 
REMARK    7  A    between atoms: N_20  and  C_19 
REMARK       I    between atoms: C_22  and  N_20 
ROOT
ATOM      1  C   LIG d   1      -5.060  91.838 117.223  0.00  0.00     0.161 C 
ATOM      2  C   LIG d   1      -4.266  90.682 117.145  0.00  0.00     0.016 C 
ATOM      3  C   LIG d   1      -3.332  90.311 118.140  0.00  0.00     0.038 C 
ATOM      4  C   LIG d   1      -3.237  90.996 119.360  0.00  0.00     0.028 C 
ATOM      5  C   LIG d   1      -3.659  92.458 119.268  0.00  0.00    -0.047 C 
ATOM      6  C   LIG d   1      -5.050  92.538 118.598  0.00  0.00     0.091 C 
ENDROOT
BRANCH   1   7
ATOM      7  O   LIG d   1      -6.411  91.530 116.827  0.00  0.00    -0.368 OA
BRANCH   7   8
ATOM      8  C   LIG d   1      -6.903  92.216 115.650  0.00  0.00     0.119 C 
BRANCH   8   9
ATOM      9  C   LIG d   1      -8.432  92.342 115.792  0.00  0.00     0.028 C 
ATOM     10  C   LIG d   1      -8.840  93.259 116.957  0.00  0.00     0.006 C 
ENDBRANCH   8   9
BRANCH   8  11
ATOM     11  C   LIG d   1      -6.680  91.382 114.385  0.00  0.00     0.028 C 
ATOM     12  C   LIG d   1      -6.925  89.882 114.610  0.00  0.00     0.006 C 
ENDBRANCH   8  11
ENDBRANCH   7   8
ENDBRANCH   1   7
BRANCH   6  13
ATOM     13  N   LIG d   1      -5.501  93.939 118.393  0.00  0.00    -0.311 N 
ATOM     14  C   LIG d   1      -6.278  94.593 119.256  0.00  0.00     0.210 C 
ATOM     15  C   LIG d   1      -6.643  96.022 118.842  0.00  0.00     0.109 C 
ATOM     16  O   LIG d   1      -6.673  94.136 120.339  0.00  0.00    -0.276 OA
ATOM     17  H   LIG d   1      -5.201  94.397 117.555  0.00  0.00     0.149 HD
ENDBRANCH   6  13
BRANCH   5  18
ATOM     18  N   LIG d   1      -3.643  93.013 120.635  0.00  0.00     0.381 N 
ATOM     19  H   LIG d   1      -2.828  93.580 120.761  0.00  0.00    -0.090 HD
ATOM     20  H   LIG d   1      -3.605  92.255 121.293  0.00  0.00    -0.090 HD
ATOM     21  H   LIG d   1      -4.463  93.558 120.792  0.00  0.00    -0.090 HD
ENDBRANCH   5  18
BRANCH   3  22
ATOM     22  C   LIG d   1      -2.452  89.266 117.901  0.00  0.00     0.382 C 
ATOM     23  O   LIG d   1      -1.292  89.506 117.486  0.00  0.00    -0.241 OA
ATOM     24  O   LIG d   1      -2.818  88.085 118.052  0.00  0.00    -0.241 OA
ENDBRANCH   3  22
TORSDOF 7
ENDMDL
MODEL 5
REMARK VINA RESULT:      -5.3      2.230      4.655
REMARK  7 active torsions:
REMARK  status: ('A' for Active; 'I' for Inactive)
REMARK    1  A    between atoms: C_2  and  C_3 
REMARK    2  A    between atoms: C_3  and  O_6 
REMARK    3  A    between atoms: C_3  and  C_4 
REMARK    4  A    between atoms: C_7  and  O_6 
REMARK    5  A    between atoms: C_9  and  C_10 
REMARK    6  A    between atoms: N_15  and  C_14 
REMARK    7  A    between atoms: N_20  and  C_19 
REMARK       I    between atoms: C_22  and  N_20 
ROOT
ATOM      1  C   LIG d   1      -5.886  92.789 117.612  0.00  0.00     0.161 C 
ATOM      2  C   LIG d   1      -6.231  93.852 118.463  0.00  0.00     0.016 C 
ATOM      3  C   LIG d   1      -7.530  94.407 118.528  0.00  0.00     0.038 C 
ATOM      4  C   LIG d   1      -8.616  93.832 117.851  0.00  0.00     0.028 C 
ATOM      5  C   LIG d   1      -8.212  93.072 116.593  0.00  0.00    -0.047 C 
ATOM      6  C   LIG d   1      -7.083  92.077 116.948  0.00  0.00     0.091 C 
ENDROOT
BRANCH   1   7
ATOM      7  O   LIG d   1      -5.070  91.838 118.324  0.00  0.00    -0.368 OA
BRANCH   7   8
ATOM      8  C   LIG d   1      -3.775  91.547 117.742  0.00  0.00     0.119 C 
BRANCH   8   9
ATOM      9  C   LIG d   1      -3.586  90.018 117.777  0.00  0.00     0.028 C 
ATOM     10  C   LIG d   1      -2.664  89.567 118.922  0.00  0.00     0.006 C 
ENDBRANCH   8   9
BRANCH   8  11
ATOM     11  C   LIG d   1      -2.639  92.116 118.597  0.00  0.00     0.028 C 
ATOM     12  C   LIG d   1      -2.118  93.464 118.074  0.00  0.00     0.006 C 
ENDBRANCH   8  11
ENDBRANCH   7   8
ENDBRANCH   1   7
BRANCH   6  13
ATOM     13  N   LIG d   1      -6.571  91.352 115.757  0.00  0.00    -0.311 N 
ATOM     14  C   LIG d   1      -6.640  90.029 115.618  0.00  0.00     0.210 C 
ATOM     15  C   LIG d   1      -6.034  89.482 114.321  0.00  0.00     0.109 C 
ATOM     16  O   LIG d   1      -7.174  89.259 116.431  0.00  0.00    -0.276 OA
ATOM     17  H   LIG d   1      -6.150  91.902 115.034  0.00  0.00     0.149 HD
ENDBRANCH   6  13
BRANCH   5  18
ATOM     18  N   LIG d   1      -9.420  92.411 116.064  0.00  0.00     0.381 N 
ATOM     19  H   LIG d   1      -9.337  91.419 116.170  0.00  0.00    -0.090 HD
ATOM     20  H   LIG d   1      -9.502  92.618 115.085  0.00  0.00    -0.090 HD
ATOM     21  H   LIG d   1     -10.227  92.737 116.549  0.00  0.00    -0.090 HD
ENDBRANCH   5  18
BRANCH   3  22
ATOM     22  C   LIG d   1      -7.744  95.573 119.246  0.00  0.00     0.382 C 
ATOM     23  O   LIG d   1      -7.263  96.658 118.838  0.00  0.00    -0.241 OA
ATOM     24  O   LIG d   1      -8.374  95.547 120.321  0.00  0.00    -0.241 OA
ENDBRANCH   3  22
TORSDOF 7
ENDMDL
MODEL 6
REMARK VINA RESULT:      -5.0      2.176      4.526
REMARK  7 active torsions:
REMARK  status: ('A' for Active; 'I' for Inactive)
REMARK    1  A    between atoms: C_2  and  C_3 
REMARK    2  A    between atoms: C_3  and  O_6 
REMARK    3  A    between atoms: C_3  and  C_4 
REMARK    4  A    between atoms: C_7  and  O_6 
REMARK    5  A    between atoms: C_9  and  C_10 
REMARK    6  A    between atoms: N_15  and  C_14 
REMARK    7  A    between atoms: N_20  and  C_19 
REMARK       I    between atoms: C_22  and  N_20 
ROOT
ATOM      1  C   LIG d   1      -5.774  92.357 118.138  0.00  0.00     0.161 C 
ATOM      2  C   LIG d   1      -7.083  92.788 118.411  0.00  0.00     0.016 C 
ATOM      3  C   LIG d   1      -7.382  93.876 119.264  0.00  0.00     0.038 C 
ATOM      4  C   LIG d   1      -6.379  94.706 119.786  0.00  0.00     0.028 C 
ATOM      5  C   LIG d   1      -5.034  94.004 119.946  0.00  0.00    -0.047 C 
ATOM      6  C   LIG d   1      -4.664  93.319 118.610  0.00  0.00     0.091 C 
ENDROOT
BRANCH   1   7
ATOM      7  O   LIG d   1      -5.634  92.082 116.730  0.00  0.00    -0.368 OA
BRANCH   7   8
ATOM      8  C   LIG d   1      -6.325  90.908 116.237  0.00  0.00     0.119 C 
BRANCH   8   9
ATOM      9  C   LIG d   1      -5.261  89.947 115.673  0.00  0.00     0.028 C 
ATOM     10  C   LIG d   1      -4.108  89.703 116.662  0.00  0.00     0.006 C 
ENDBRANCH   8   9
BRANCH   8  11
ATOM     11  C   LIG d   1      -7.231  91.251 115.051  0.00  0.00     0.028 C 
ATOM     12  C   LIG d   1      -8.722  91.042 115.360  0.00  0.00     0.006 C 
ENDBRANCH   8  11
ENDBRANCH   7   8
ENDBRANCH   1   7
BRANCH   6  13
ATOM     13  N   LIG d   1      -3.403  92.538 118.704  0.00  0.00    -0.311 N 
ATOM     14  C   LIG d   1      -2.212  93.027 118.363  0.00  0.00     0.210 C 
ATOM     15  C   LIG d   1      -1.043  92.048 118.518  0.00  0.00     0.109 C 
ATOM     16  O   LIG d   1      -2.007  94.188 117.978  0.00  0.00    -0.276 OA
ATOM     17  H   LIG d   1      -3.473  91.596 119.036  0.00  0.00     0.149 HD
ENDBRANCH   6  13
BRANCH   5  18
ATOM     18  N   LIG d   1      -4.049  95.018 120.367  0.00  0.00     0.381 N 
ATOM     19  H   LIG d   1      -3.437  95.233 119.606  0.00  0.00    -0.090 HD
ATOM     20  H   LIG d   1      -3.498  94.643 121.119  0.00  0.00    -0.090 HD
ATOM     21  H   LIG d   1      -4.518  95.844 120.669  0.00  0.00    -0.090 HD
ENDBRANCH   5  18
BRANCH   3  22
ATOM     22  C   LIG d   1      -8.696  94.118 119.634  0.00  0.00     0.382 C 
ATOM     23  O   LIG d   1      -9.011  95.221 120.141  0.00  0.00    -0.241 OA
ATOM     24  O   LIG d   1      -9.561  93.230 119.509  0.00  0.00    -0.241 OA
ENDBRANCH   3  22
TORSDOF 7
ENDMDL
MODEL 7
REMARK VINA RESULT:      -5.0      2.401      4.330
REMARK  7 active torsions:
REMARK  status: ('A' for Active; 'I' for Inactive)
REMARK    1  A    between atoms: C_2  and  C_3 
REMARK    2  A    between atoms: C_3  and  O_6 
REMARK    3  A    between atoms: C_3  and  C_4 
REMARK    4  A    between atoms: C_7  and  O_6 
REMARK    5  A    between atoms: C_9  and  C_10 
REMARK    6  A    between atoms: N_15  and  C_14 
REMARK    7  A    between atoms: N_20  and  C_19 
REMARK       I    between atoms: C_22  and  N_20 
ROOT
ATOM      1  C   LIG d   1      -4.587  91.025 117.711  0.00  0.00     0.161 C 
ATOM      2  C   LIG d   1      -5.617  90.411 116.978  0.00  0.00     0.016 C 
ATOM      3  C   LIG d   1      -6.818  91.068 116.625  0.00  0.00     0.038 C 
ATOM      4  C   LIG d   1      -7.007  92.439 116.852  0.00  0.00     0.028 C 
ATOM      5  C   LIG d   1      -6.207  92.974 118.035  0.00  0.00    -0.047 C 
ATOM      6  C   LIG d   1      -4.729  92.553 117.871  0.00  0.00     0.091 C 
ENDROOT
BRANCH   1   7
ATOM      7  O   LIG d   1      -3.310  90.698 117.127  0.00  0.00    -0.368 OA
BRANCH   7   8
ATOM      8  C   LIG d   1      -2.498  89.748 117.860  0.00  0.00     0.119 C 
BRANCH   8   9
ATOM      9  C   LIG d   1      -3.056  89.672 119.294  0.00  0.00     0.028 C 
ATOM     10  C   LIG d   1      -1.999  90.022 120.355  0.00  0.00     0.006 C 
ENDBRANCH   8   9
BRANCH   8  11
ATOM     11  C   LIG d   1      -1.058  90.247 118.012  0.00  0.00     0.028 C 
ATOM     12  C   LIG d   1      -0.084  89.559 117.042  0.00  0.00     0.006 C 
ENDBRANCH   8  11
ENDBRANCH   7   8
ENDBRANCH   1   7
BRANCH   6  13
ATOM     13  N   LIG d   1      -3.891  92.963 119.028  0.00  0.00    -0.311 N 
ATOM     14  C   LIG d   1      -2.667  93.474 118.903  0.00  0.00     0.210 C 
ATOM     15  C   LIG d   1      -1.969  93.812 120.224  0.00  0.00     0.109 C 
ATOM     16  O   LIG d   1      -2.107  93.709 117.822  0.00  0.00    -0.276 OA
ATOM     17  H   LIG d   1      -4.281  92.836 119.942  0.00  0.00     0.149 HD
ENDBRANCH   6  13
BRANCH   5  18
ATOM     18  N   LIG d   1      -6.390  94.437 118.072  0.00  0.00     0.381 N 
ATOM     19  H   LIG d   1      -6.298  94.814 117.150  0.00  0.00    -0.090 HD
ATOM     20  H   LIG d   1      -5.674  94.840 118.651  0.00  0.00    -0.090 HD
ATOM     21  H   LIG d   1      -7.289  94.659 118.440  0.00  0.00    -0.090 HD
ENDBRANCH   5  18
BRANCH   3  22
ATOM     22  C   LIG d   1      -7.861  90.341 116.072  0.00  0.00     0.382 C 
ATOM     23  O   LIG d   1      -8.934  90.916 115.769  0.00  0.00    -0.241 OA
ATOM     24  O   LIG d   1      -7.759  89.110 115.914  0.00  0.00    -0.241 OA
ENDBRANCH   3  22
TORSDOF 7
ENDMDL
MODEL 8
REMARK VINA RESULT:      -4.7      2.430      4.684
REMARK  7 active torsions:
REMARK  status: ('A' for Active; 'I' for Inactive)
REMARK    1  A    between atoms: C_2  and  C_3 
REMARK    2  A    between atoms: C_3  and  O_6 
REMARK    3  A    between atoms: C_3  and  C_4 
REMARK    4  A    between atoms: C_7  and  O_6 
REMARK    5  A    between atoms: C_9  and  C_10 
REMARK    6  A    between atoms: N_15  and  C_14 
REMARK    7  A    between atoms: N_20  and  C_19 
REMARK       I    between atoms: C_22  and  N_20 
ROOT
ATOM      1  C   LIG d   1      -5.457  92.279 119.783  0.00  0.00     0.161 C 
ATOM      2  C   LIG d   1      -6.833  92.558 119.770  0.00  0.00     0.016 C 
ATOM      3  C   LIG d   1      -7.364  93.849 119.545  0.00  0.00     0.038 C 
ATOM      4  C   LIG d   1      -6.552  94.928 119.165  0.00  0.00     0.028 C 
ATOM      5  C   LIG d   1      -5.115  94.808 119.660  0.00  0.00    -0.047 C 
ATOM      6  C   LIG d   1      -4.561  93.422 119.261  0.00  0.00     0.091 C 
ENDROOT
BRANCH   1   7
ATOM      7  O   LIG d   1      -5.197  91.065 119.052  0.00  0.00    -0.368 OA
BRANCH   7   8
ATOM      8  C   LIG d   1      -4.795  91.227 117.669  0.00  0.00     0.119 C 
BRANCH   8   9
ATOM      9  C   LIG d   1      -6.035  90.964 116.793  0.00  0.00     0.028 C 
ATOM     10  C   LIG d   1      -6.480  92.214 116.015  0.00  0.00     0.006 C 
ENDBRANCH   8   9
BRANCH   8  11
ATOM     11  C   LIG d   1      -3.774  90.162 117.257  0.00  0.00     0.028 C 
ATOM     12  C   LIG d   1      -2.883  89.708 118.424  0.00  0.00     0.006 C 
ENDBRANCH   8  11
ENDBRANCH   7   8
ENDBRANCH   1   7
BRANCH   6  13
ATOM     13  N   LIG d   1      -3.187  93.189 119.779  0.00  0.00    -0.311 N 
ATOM     14  C   LIG d   1      -2.088  93.372 119.050  0.00  0.00     0.210 C 
ATOM     15  C   LIG d   1      -0.774  93.055 119.771  0.00  0.00     0.109 C 
ATOM     16  O   LIG d   1      -2.074  93.796 117.885  0.00  0.00    -0.276 OA
ATOM     17  H   LIG d   1      -3.105  92.873 120.726  0.00  0.00     0.149 HD
ENDBRANCH   6  13
BRANCH   5  18
ATOM     18  N   LIG d   1      -4.349  95.927 119.078  0.00  0.00     0.381 N 
ATOM     19  H   LIG d   1      -4.032  95.679 118.162  0.00  0.00    -0.090 HD
ATOM     20  H   LIG d   1      -3.544  96.103 119.653  0.00  0.00    -0.090 HD
ATOM     21  H   LIG d   1      -4.919  96.742 119.031  0.00  0.00    -0.090 HD
ENDBRANCH   5  18
BRANCH   3  22
ATOM     22  C   LIG d   1      -8.718  94.079 119.739  0.00  0.00     0.382 C 
ATOM     23  O   LIG d   1      -9.551  93.179 119.474  0.00  0.00    -0.241 OA
ATOM     24  O   LIG d   1      -9.119  95.190 120.134  0.00  0.00    -0.241 OA
ENDBRANCH   3  22
TORSDOF 7
ENDMDL
MODEL 9
REMARK VINA RESULT:      -4.6     27.801     30.061
REMARK  7 active torsions:
REMARK  status: ('A' for Active; 'I' for Inactive)
REMARK    1  A    between atoms: C_2  and  C_3 
REMARK    2  A    between atoms: C_3  and  O_6 
REMARK    3  A    between atoms: C_3  and  C_4 
REMARK    4  A    between atoms: C_7  and  O_6 
REMARK    5  A    between atoms: C_9  and  C_10 
REMARK    6  A    between atoms: N_15  and  C_14 
REMARK    7  A    between atoms: N_20  and  C_19 
REMARK       I    between atoms: C_22  and  N_20 
ROOT
ATOM      1  C   LIG d   1     -16.004  64.537 116.104  0.00  0.00     0.161 C 
ATOM      2  C   LIG d   1     -17.071  64.803 115.229  0.00  0.00     0.016 C 
ATOM      3  C   LIG d   1     -18.280  64.071 115.231  0.00  0.00     0.038 C 
ATOM      4  C   LIG d   1     -18.566  63.114 116.217  0.00  0.00     0.028 C 
ATOM      5  C   LIG d   1     -17.320  62.463 116.808  0.00  0.00    -0.047 C 
ATOM      6  C   LIG d   1     -16.340  63.571 117.259  0.00  0.00     0.091 C 
ENDROOT
BRANCH   1   7
ATOM      7  O   LIG d   1     -15.478  65.775 116.623  0.00  0.00    -0.368 OA
BRANCH   7   8
ATOM      8  C   LIG d   1     -16.446  66.823 116.874  0.00  0.00     0.119 C 
BRANCH   8   9
ATOM      9  C   LIG d   1     -15.804  68.158 116.448  0.00  0.00     0.028 C 
ATOM     10  C   LIG d   1     -14.715  67.970 115.378  0.00  0.00     0.006 C 
ENDBRANCH   8   9
BRANCH   8  11
ATOM     11  C   LIG d   1     -16.732  66.971 118.371  0.00  0.00     0.028 C 
ATOM     12  C   LIG d   1     -18.123  66.450 118.766  0.00  0.00     0.006 C 
ENDBRANCH   8  11
ENDBRANCH   7   8
ENDBRANCH   1   7
BRANCH   6  13
ATOM     13  N   LIG d   1     -15.059  63.021 117.772  0.00  0.00    -0.311 N 
ATOM     14  C   LIG d   1     -14.481  63.437 118.897  0.00  0.00     0.210 C 
ATOM     15  C   LIG d   1     -13.153  62.751 119.234  0.00  0.00     0.109 C 
ATOM     16  O   LIG d   1     -14.957  64.286 119.665  0.00  0.00    -0.276 OA
ATOM     17  H   LIG d   1     -14.619  62.305 117.227  0.00  0.00     0.149 HD
ENDBRANCH   6  13
BRANCH   5  18
ATOM     18  N   LIG d   1     -17.755  61.591 117.915  0.00  0.00     0.381 N 
ATOM     19  H   LIG d   1     -17.223  60.744 117.908  0.00  0.00    -0.090 HD
ATOM     20  H   LIG d   1     -18.723  61.357 117.783  0.00  0.00    -0.090 HD
ATOM     21  H   LIG d   1     -17.635  62.060 118.786  0.00  0.00    -0.090 HD
ENDBRANCH   5  18
BRANCH   3  22
ATOM     22  C   LIG d   1     -19.203  64.265 114.215  0.00  0.00     0.382 C 
ATOM     23  O   LIG d   1     -19.454  63.337 113.410  0.00  0.00    -0.241 OA
ATOM     24  O   LIG d   1     -19.756  65.372 114.067  0.00  0.00    -0.241 OA
ENDBRANCH   3  22
TORSDOF 7
ENDMDL
