MODEL 1
REMARK VINA RESULT:      -5.5      0.000      0.000
REMARK  7 active torsions:
REMARK  status: ('A' for Active; 'I' for Inactive)
REMARK    1  A    between atoms: C_2  and  C_3 
REMARK    2  A    between atoms: C_3  and  O_6 
REMARK    3  A    between atoms: C_3  and  C_4 
REMARK    4  A    between atoms: C_7  and  O_6 
REMARK    5  A    between atoms: C_9  and  C_10 
REMARK    6  A    between atoms: N_15  and  C_14 
REMARK    7  A    between atoms: N_20  and  C_19 
REMARK       I    between atoms: C_22  and  N_20 
ROOT
ATOM      1  C   LIG d   1      -6.126  93.607 118.018  0.00  0.00     0.161 C 
ATOM      2  C   LIG d   1      -6.756  92.793 117.062  0.00  0.00     0.016 C 
ATOM      3  C   LIG d   1      -6.085  91.782 116.337  0.00  0.00     0.038 C 
ATOM      4  C   LIG d   1      -4.764  91.412 116.629  0.00  0.00     0.028 C 
ATOM      5  C   LIG d   1      -3.939  92.543 117.235  0.00  0.00    -0.047 C 
ATOM      6  C   LIG d   1      -4.713  93.144 118.430  0.00  0.00     0.091 C 
ENDROOT
BRANCH   1   7
ATOM      7  O   LIG d   1      -6.969  93.738 119.179  0.00  0.00    -0.368 OA
BRANCH   7   8
ATOM      8  C   LIG d   1      -8.002  94.752 119.106  0.00  0.00     0.119 C 
BRANCH   8   9
ATOM      9  C   LIG d   1      -7.320  96.081 118.727  0.00  0.00     0.028 C 
ATOM     10  C   LIG d   1      -8.332  97.164 118.317  0.00  0.00     0.006 C 
ENDBRANCH   8   9
BRANCH   8  11
ATOM     11  C   LIG d   1      -8.638  94.999 120.477  0.00  0.00     0.028 C 
ATOM     12  C   LIG d   1     -10.150  94.723 120.490  0.00  0.00     0.006 C 
ENDBRANCH   8  11
ENDBRANCH   7   8
ENDBRANCH   1   7
BRANCH   6  13
ATOM     13  N   LIG d   1      -4.014  94.312 119.028  0.00  0.00    -0.311 N 
ATOM     14  C   LIG d   1      -3.178  94.216 120.060  0.00  0.00     0.210 C 
ATOM     15  C   LIG d   1      -2.581  95.545 120.534  0.00  0.00     0.109 C 
ATOM     16  O   LIG d   1      -2.850  93.153 120.609  0.00  0.00    -0.276 OA
ATOM     17  H   LIG d   1      -4.199  95.210 118.625  0.00  0.00     0.149 HD
ENDBRANCH   6  13
BRANCH   5  18
ATOM     18  N   LIG d   1      -2.629  91.983 117.618  0.00  0.00     0.381 N 
ATOM     19  H   LIG d   1      -1.903  92.431 117.094  0.00  0.00    -0.090 HD
ATOM     20  H   LIG d   1      -2.617  91.002 117.397  0.00  0.00    -0.090 HD
ATOM     21  H   LIG d   1      -2.474  92.113 118.593  0.00  0.00    -0.090 HD
ENDBRANCH   5  18
BRANCH   3  22
ATOM     22  C   LIG d   1      -6.725  91.155 115.278  0.00  0.00     0.382 C 
ATOM     23  O   LIG d   1      -6.676  91.657 114.130  0.00  0.00    -0.241 OA
ATOM     24  O   LIG d   1      -7.388  90.117 115.466  0.00  0.00    -0.241 OA
ENDBRANCH   3  22
TORSDOF 7
ENDMDL
MODEL 2
REMARK VINA RESULT:      -5.5     13.630     16.451
REMARK  7 active torsions:
REMARK  status: ('A' for Active; 'I' for Inactive)
REMARK    1  A    between atoms: C_2  and  C_3 
REMARK    2  A    between atoms: C_3  and  O_6 
REMARK    3  A    between atoms: C_3  and  C_4 
REMARK    4  A    between atoms: C_7  and  O_6 
REMARK    5  A    between atoms: C_9  and  C_10 
REMARK    6  A    between atoms: N_15  and  C_14 
REMARK    7  A    between atoms: N_20  and  C_19 
REMARK       I    between atoms: C_22  and  N_20 
ROOT
ATOM      1  C   LIG d   1      -6.916  77.586 117.227  0.00  0.00     0.161 C 
ATOM      2  C   LIG d   1      -8.205  78.073 117.500  0.00  0.00     0.016 C 
ATOM      3  C   LIG d   1      -8.471  79.416 117.853  0.00  0.00     0.038 C 
ATOM      4  C   LIG d   1      -7.477  80.405 117.810  0.00  0.00     0.028 C 
ATOM      5  C   LIG d   1      -6.070  79.860 118.031  0.00  0.00    -0.047 C 
ATOM      6  C   LIG d   1      -5.834  78.675 117.067  0.00  0.00     0.091 C 
ENDROOT
BRANCH   1   7
ATOM      7  O   LIG d   1      -6.950  76.738 116.063  0.00  0.00    -0.368 OA
BRANCH   7   8
ATOM      8  C   LIG d   1      -6.383  75.414 116.221  0.00  0.00     0.119 C 
BRANCH   8   9
ATOM      9  C   LIG d   1      -5.531  75.123 114.971  0.00  0.00     0.028 C 
ATOM     10  C   LIG d   1      -5.725  76.178 113.869  0.00  0.00     0.006 C 
ENDBRANCH   8   9
BRANCH   8  11
ATOM     11  C   LIG d   1      -7.474  74.339 116.228  0.00  0.00     0.028 C 
ATOM     12  C   LIG d   1      -6.931  72.938 115.904  0.00  0.00     0.006 C 
ENDBRANCH   8  11
ENDBRANCH   7   8
ENDBRANCH   1   7
BRANCH   6  13
ATOM     13  N   LIG d   1      -4.512  78.029 117.275  0.00  0.00    -0.311 N 
ATOM     14  C   LIG d   1      -3.550  78.014 116.354  0.00  0.00     0.210 C 
ATOM     15  C   LIG d   1      -2.272  77.277 116.766  0.00  0.00     0.109 C 
ATOM     16  O   LIG d   1      -3.622  78.568 115.247  0.00  0.00    -0.276 OA
ATOM     17  H   LIG d   1      -4.356  77.582 118.158  0.00  0.00     0.149 HD
ENDBRANCH   6  13
BRANCH   5  18
ATOM     18  N   LIG d   1      -5.123  80.972 117.823  0.00  0.00     0.381 N 
ATOM     19  H   LIG d   1      -4.263  80.778 118.296  0.00  0.00    -0.090 HD
ATOM     20  H   LIG d   1      -5.516  81.810 118.213  0.00  0.00    -0.090 HD
ATOM     21  H   LIG d   1      -4.953  81.098 116.849  0.00  0.00    -0.090 HD
ENDBRANCH   5  18
BRANCH   3  22
ATOM     22  C   LIG d   1      -9.736  79.773 118.294  0.00  0.00     0.382 C 
ATOM     23  O   LIG d   1     -10.622  78.896 118.435  0.00  0.00    -0.241 OA
ATOM     24  O   LIG d   1     -10.016  80.968 118.510  0.00  0.00    -0.241 OA
ENDBRANCH   3  22
TORSDOF 7
ENDMDL
MODEL 3
REMARK VINA RESULT:      -5.4      0.671      1.717
REMARK  7 active torsions:
REMARK  status: ('A' for Active; 'I' for Inactive)
REMARK    1  A    between atoms: C_2  and  C_3 
REMARK    2  A    between atoms: C_3  and  O_6 
REMARK    3  A    between atoms: C_3  and  C_4 
REMARK    4  A    between atoms: C_7  and  O_6 
REMARK    5  A    between atoms: C_9  and  C_10 
REMARK    6  A    between atoms: N_15  and  C_14 
REMARK    7  A    between atoms: N_20  and  C_19 
REMARK       I    between atoms: C_22  and  N_20 
ROOT
ATOM      1  C   LIG d   1      -6.073  93.531 118.031  0.00  0.00     0.161 C 
ATOM      2  C   LIG d   1      -6.663  92.758 117.018  0.00  0.00     0.016 C 
ATOM      3  C   LIG d   1      -5.955  91.800 116.257  0.00  0.00     0.038 C 
ATOM      4  C   LIG d   1      -4.634  91.439 116.563  0.00  0.00     0.028 C 
ATOM      5  C   LIG d   1      -3.847  92.551 117.249  0.00  0.00    -0.047 C 
ATOM      6  C   LIG d   1      -4.661  93.073 118.455  0.00  0.00     0.091 C 
ENDROOT
BRANCH   1   7
ATOM      7  O   LIG d   1      -6.947  93.584 119.177  0.00  0.00    -0.368 OA
BRANCH   7   8
ATOM      8  C   LIG d   1      -7.557  94.869 119.453  0.00  0.00     0.119 C 
BRANCH   8   9
ATOM      9  C   LIG d   1      -9.053  94.756 119.098  0.00  0.00     0.028 C 
ATOM     10  C   LIG d   1      -9.957  94.820 120.341  0.00  0.00     0.006 C 
ENDBRANCH   8   9
BRANCH   8  11
ATOM     11  C   LIG d   1      -7.003  95.959 118.531  0.00  0.00     0.028 C 
ATOM     12  C   LIG d   1      -6.293  97.084 119.300  0.00  0.00     0.006 C 
ENDBRANCH   8  11
ENDBRANCH   7   8
ENDBRANCH   1   7
BRANCH   6  13
ATOM     13  N   LIG d   1      -4.001  94.219 119.132  0.00  0.00    -0.311 N 
ATOM     14  C   LIG d   1      -3.780  94.267 120.444  0.00  0.00     0.210 C 
ATOM     15  C   LIG d   1      -3.103  95.549 120.940  0.00  0.00     0.109 C 
ATOM     16  O   LIG d   1      -4.051  93.356 121.241  0.00  0.00    -0.276 OA
ATOM     17  H   LIG d   1      -3.720  94.989 118.556  0.00  0.00     0.149 HD
ENDBRANCH   6  13
BRANCH   5  18
ATOM     18  N   LIG d   1      -2.536  91.995 117.635  0.00  0.00     0.381 N 
ATOM     19  H   LIG d   1      -2.083  92.612 118.280  0.00  0.00    -0.090 HD
ATOM     20  H   LIG d   1      -1.961  91.919 116.814  0.00  0.00    -0.090 HD
ATOM     21  H   LIG d   1      -2.654  91.097 118.050  0.00  0.00    -0.090 HD
ENDBRANCH   5  18
BRANCH   3  22
ATOM     22  C   LIG d   1      -6.556  91.219 115.151  0.00  0.00     0.382 C 
ATOM     23  O   LIG d   1      -6.899  90.013 115.184  0.00  0.00    -0.241 OA
ATOM     24  O   LIG d   1      -6.720  91.875 114.104  0.00  0.00    -0.241 OA
ENDBRANCH   3  22
TORSDOF 7
ENDMDL
MODEL 4
REMARK VINA RESULT:      -5.2     15.295     17.967
REMARK  7 active torsions:
REMARK  status: ('A' for Active; 'I' for Inactive)
REMARK    1  A    between atoms: C_2  and  C_3 
REMARK    2  A    between atoms: C_3  and  O_6 
REMARK    3  A    between atoms: C_3  and  C_4 
REMARK    4  A    between atoms: C_7  and  O_6 
REMARK    5  A    between atoms: C_9  and  C_10 
REMARK    6  A    between atoms: N_15  and  C_14 
REMARK    7  A    between atoms: N_20  and  C_19 
REMARK       I    between atoms: C_22  and  N_20 
ROOT
ATOM      1  C   LIG d   1      -4.605  75.860 116.588  0.00  0.00     0.161 C 
ATOM      2  C   LIG d   1      -5.257  74.678 116.200  0.00  0.00     0.016 C 
ATOM      3  C   LIG d   1      -6.663  74.535 116.184  0.00  0.00     0.038 C 
ATOM      4  C   LIG d   1      -7.522  75.620 116.412  0.00  0.00     0.028 C 
ATOM      5  C   LIG d   1      -6.911  76.700 117.299  0.00  0.00    -0.047 C 
ATOM      6  C   LIG d   1      -5.527  77.090 116.734  0.00  0.00     0.091 C 
ENDROOT
BRANCH   1   7
ATOM      7  O   LIG d   1      -3.528  76.147 115.675  0.00  0.00    -0.368 OA
BRANCH   7   8
ATOM      8  C   LIG d   1      -2.199  76.191 116.250  0.00  0.00     0.119 C 
BRANCH   8   9
ATOM      9  C   LIG d   1      -1.324  77.062 115.327  0.00  0.00     0.028 C 
ATOM     10  C   LIG d   1      -2.051  77.457 114.030  0.00  0.00     0.006 C 
ENDBRANCH   8   9
BRANCH   8  11
ATOM     11  C   LIG d   1      -1.543  74.808 116.244  0.00  0.00     0.028 C 
ATOM     12  C   LIG d   1      -1.139  74.333 117.649  0.00  0.00     0.006 C 
ENDBRANCH   8  11
ENDBRANCH   7   8
ENDBRANCH   1   7
BRANCH   6  13
ATOM     13  N   LIG d   1      -4.823  78.080 117.589  0.00  0.00    -0.311 N 
ATOM     14  C   LIG d   1      -4.220  79.166 117.109  0.00  0.00     0.210 C 
ATOM     15  C   LIG d   1      -3.537  80.046 118.162  0.00  0.00     0.109 C 
ATOM     16  O   LIG d   1      -4.212  79.502 115.915  0.00  0.00    -0.276 OA
ATOM     17  H   LIG d   1      -4.807  77.903 118.574  0.00  0.00     0.149 HD
ENDBRANCH   6  13
BRANCH   5  18
ATOM     18  N   LIG d   1      -7.858  77.830 117.341  0.00  0.00     0.381 N 
ATOM     19  H   LIG d   1      -8.347  77.895 116.470  0.00  0.00    -0.090 HD
ATOM     20  H   LIG d   1      -7.342  78.682 117.477  0.00  0.00    -0.090 HD
ATOM     21  H   LIG d   1      -8.507  77.704 118.086  0.00  0.00    -0.090 HD
ENDBRANCH   5  18
BRANCH   3  22
ATOM     22  C   LIG d   1      -7.224  73.283 115.977  0.00  0.00     0.382 C 
ATOM     23  O   LIG d   1      -6.522  72.350 115.520  0.00  0.00    -0.241 OA
ATOM     24  O   LIG d   1      -8.434  73.089 116.199  0.00  0.00    -0.241 OA
ENDBRANCH   3  22
TORSDOF 7
ENDMDL
MODEL 5
REMARK VINA RESULT:      -5.1      2.403      4.430
REMARK  7 active torsions:
REMARK  status: ('A' for Active; 'I' for Inactive)
REMARK    1  A    between atoms: C_2  and  C_3 
REMARK    2  A    between atoms: C_3  and  O_6 
REMARK    3  A    between atoms: C_3  and  C_4 
REMARK    4  A    between atoms: C_7  and  O_6 
REMARK    5  A    between atoms: C_9  and  C_10 
REMARK    6  A    between atoms: N_15  and  C_14 
REMARK    7  A    between atoms: N_20  and  C_19 
REMARK       I    between atoms: C_22  and  N_20 
ROOT
ATOM      1  C   LIG d   1      -5.265  92.882 119.609  0.00  0.00     0.161 C 
ATOM      2  C   LIG d   1      -4.143  92.174 119.149  0.00  0.00     0.016 C 
ATOM      3  C   LIG d   1      -3.997  91.728 117.816  0.00  0.00     0.038 C 
ATOM      4  C   LIG d   1      -4.902  92.093 116.808  0.00  0.00     0.028 C 
ATOM      5  C   LIG d   1      -6.306  92.379 117.331  0.00  0.00    -0.047 C 
ATOM      6  C   LIG d   1      -6.211  93.386 118.499  0.00  0.00     0.091 C 
ENDROOT
BRANCH   1   7
ATOM      7  O   LIG d   1      -4.843  93.979 120.444  0.00  0.00    -0.368 OA
BRANCH   7   8
ATOM      8  C   LIG d   1      -4.374  95.162 119.753  0.00  0.00     0.119 C 
BRANCH   8   9
ATOM      9  C   LIG d   1      -2.867  95.302 120.044  0.00  0.00     0.028 C 
ATOM     10  C   LIG d   1      -2.009  95.164 118.775  0.00  0.00     0.006 C 
ENDBRANCH   8   9
BRANCH   8  11
ATOM     11  C   LIG d   1      -5.016  96.431 120.321  0.00  0.00     0.028 C 
ATOM     12  C   LIG d   1      -4.868  97.643 119.388  0.00  0.00     0.006 C 
ENDBRANCH   8  11
ENDBRANCH   7   8
ENDBRANCH   1   7
BRANCH   6  13
ATOM     13  N   LIG d   1      -7.533  93.656 119.123  0.00  0.00    -0.311 N 
ATOM     14  C   LIG d   1      -8.179  94.814 119.000  0.00  0.00     0.210 C 
ATOM     15  C   LIG d   1      -9.518  94.890 119.740  0.00  0.00     0.109 C 
ATOM     16  O   LIG d   1      -7.786  95.775 118.321  0.00  0.00    -0.276 OA
ATOM     17  H   LIG d   1      -7.940  92.920 119.666  0.00  0.00     0.149 HD
ENDBRANCH   6  13
BRANCH   5  18
ATOM     18  N   LIG d   1      -7.109  92.880 116.199  0.00  0.00     0.381 N 
ATOM     19  H   LIG d   1      -6.778  93.783 115.922  0.00  0.00    -0.090 HD
ATOM     20  H   LIG d   1      -8.065  92.973 116.495  0.00  0.00    -0.090 HD
ATOM     21  H   LIG d   1      -7.050  92.247 115.432  0.00  0.00    -0.090 HD
ENDBRANCH   5  18
BRANCH   3  22
ATOM     22  C   LIG d   1      -2.956  90.873 117.487  0.00  0.00     0.382 C 
ATOM     23  O   LIG d   1      -1.775  91.295 117.484  0.00  0.00    -0.241 OA
ATOM     24  O   LIG d   1      -3.187  89.696 117.151  0.00  0.00    -0.241 OA
ENDBRANCH   3  22
TORSDOF 7
ENDMDL
MODEL 6
REMARK VINA RESULT:      -5.1     27.309     29.991
REMARK  7 active torsions:
REMARK  status: ('A' for Active; 'I' for Inactive)
REMARK    1  A    between atoms: C_2  and  C_3 
REMARK    2  A    between atoms: C_3  and  O_6 
REMARK    3  A    between atoms: C_3  and  C_4 
REMARK    4  A    between atoms: C_7  and  O_6 
REMARK    5  A    between atoms: C_9  and  C_10 
REMARK    6  A    between atoms: N_15  and  C_14 
REMARK    7  A    between atoms: N_20  and  C_19 
REMARK       I    between atoms: C_22  and  N_20 
ROOT
ATOM      1  C   LIG d   1     -15.848  65.609 117.171  0.00  0.00     0.161 C 
ATOM      2  C   LIG d   1     -15.917  66.995 116.950  0.00  0.00     0.016 C 
ATOM      3  C   LIG d   1     -15.322  67.950 117.807  0.00  0.00     0.038 C 
ATOM      4  C   LIG d   1     -14.484  67.574 118.868  0.00  0.00     0.028 C 
ATOM      5  C   LIG d   1     -14.798  66.190 119.427  0.00  0.00    -0.047 C 
ATOM      6  C   LIG d   1     -14.846  65.177 118.261  0.00  0.00     0.091 C 
ENDROOT
BRANCH   1   7
ATOM      7  O   LIG d   1     -15.565  64.931 115.931  0.00  0.00    -0.368 OA
BRANCH   7   8
ATOM      8  C   LIG d   1     -16.715  64.519 115.152  0.00  0.00     0.119 C 
BRANCH   8   9
ATOM      9  C   LIG d   1     -16.884  62.999 115.344  0.00  0.00     0.028 C 
ATOM     10  C   LIG d   1     -17.378  62.298 114.068  0.00  0.00     0.006 C 
ENDBRANCH   8   9
BRANCH   8  11
ATOM     11  C   LIG d   1     -16.472  64.714 113.653  0.00  0.00     0.028 C 
ATOM     12  C   LIG d   1     -15.881  66.092 113.319  0.00  0.00     0.006 C 
ENDBRANCH   8  11
ENDBRANCH   7   8
ENDBRANCH   1   7
BRANCH   6  13
ATOM     13  N   LIG d   1     -15.230  63.813 118.710  0.00  0.00    -0.311 N 
ATOM     14  C   LIG d   1     -14.523  62.721 118.426  0.00  0.00     0.210 C 
ATOM     15  C   LIG d   1     -15.107  61.413 118.969  0.00  0.00     0.109 C 
ATOM     16  O   LIG d   1     -13.450  62.715 117.804  0.00  0.00    -0.276 OA
ATOM     17  H   LIG d   1     -16.071  63.730 119.247  0.00  0.00     0.149 HD
ENDBRANCH   6  13
BRANCH   5  18
ATOM     18  N   LIG d   1     -13.766  65.870 120.430  0.00  0.00     0.381 N 
ATOM     19  H   LIG d   1     -13.472  64.920 120.322  0.00  0.00    -0.090 HD
ATOM     20  H   LIG d   1     -14.161  65.975 121.348  0.00  0.00    -0.090 HD
ATOM     21  H   LIG d   1     -12.986  66.481 120.324  0.00  0.00    -0.090 HD
ENDBRANCH   5  18
BRANCH   3  22
ATOM     22  C   LIG d   1     -15.596  69.297 117.630  0.00  0.00     0.382 C 
ATOM     23  O   LIG d   1     -15.693  69.770 116.472  0.00  0.00    -0.241 OA
ATOM     24  O   LIG d   1     -15.703  70.055 118.613  0.00  0.00    -0.241 OA
ENDBRANCH   3  22
TORSDOF 7
ENDMDL
MODEL 7
REMARK VINA RESULT:      -4.9     12.928     15.633
REMARK  7 active torsions:
REMARK  status: ('A' for Active; 'I' for Inactive)
REMARK    1  A    between atoms: C_2  and  C_3 
REMARK    2  A    between atoms: C_3  and  O_6 
REMARK    3  A    between atoms: C_3  and  C_4 
REMARK    4  A    between atoms: C_7  and  O_6 
REMARK    5  A    between atoms: C_9  and  C_10 
REMARK    6  A    between atoms: N_15  and  C_14 
REMARK    7  A    between atoms: N_20  and  C_19 
REMARK       I    between atoms: C_22  and  N_20 
ROOT
ATOM      1  C   LIG d   1      -5.137  78.589 117.000  0.00  0.00     0.161 C 
ATOM      2  C   LIG d   1      -5.255  77.266 116.543  0.00  0.00     0.016 C 
ATOM      3  C   LIG d   1      -6.477  76.556 116.521  0.00  0.00     0.038 C 
ATOM      4  C   LIG d   1      -7.701  77.176 116.816  0.00  0.00     0.028 C 
ATOM      5  C   LIG d   1      -7.565  78.362 117.765  0.00  0.00    -0.047 C 
ATOM      6  C   LIG d   1      -6.479  79.318 117.221  0.00  0.00     0.091 C 
ENDROOT
BRANCH   1   7
ATOM      7  O   LIG d   1      -4.299  79.343 116.103  0.00  0.00    -0.368 OA
BRANCH   7   8
ATOM      8  C   LIG d   1      -2.977  78.802 115.860  0.00  0.00     0.119 C 
BRANCH   8   9
ATOM      9  C   LIG d   1      -1.962  79.729 116.555  0.00  0.00     0.028 C 
ATOM     10  C   LIG d   1      -0.570  79.086 116.681  0.00  0.00     0.006 C 
ENDBRANCH   8   9
BRANCH   8  11
ATOM     11  C   LIG d   1      -2.620  78.853 114.371  0.00  0.00     0.028 C 
ATOM     12  C   LIG d   1      -2.660  80.279 113.798  0.00  0.00     0.006 C 
ENDBRANCH   8  11
ENDBRANCH   7   8
ENDBRANCH   1   7
BRANCH   6  13
ATOM     13  N   LIG d   1      -6.224  80.463 118.134  0.00  0.00    -0.311 N 
ATOM     14  C   LIG d   1      -6.797  81.657 117.991  0.00  0.00     0.210 C 
ATOM     15  C   LIG d   1      -6.379  82.703 119.029  0.00  0.00     0.109 C 
ATOM     16  O   LIG d   1      -7.635  81.939 117.122  0.00  0.00    -0.276 OA
ATOM     17  H   LIG d   1      -5.580  80.313 118.886  0.00  0.00     0.149 HD
ENDBRANCH   6  13
BRANCH   5  18
ATOM     18  N   LIG d   1      -8.892  78.997 117.877  0.00  0.00     0.381 N 
ATOM     19  H   LIG d   1      -9.119  79.139 118.841  0.00  0.00    -0.090 HD
ATOM     20  H   LIG d   1      -9.580  78.384 117.478  0.00  0.00    -0.090 HD
ATOM     21  H   LIG d   1      -8.894  79.870 117.396  0.00  0.00    -0.090 HD
ENDBRANCH   5  18
BRANCH   3  22
ATOM     22  C   LIG d   1      -6.479  75.198 116.240  0.00  0.00     0.382 C 
ATOM     23  O   LIG d   1      -6.410  74.804 115.050  0.00  0.00    -0.241 OA
ATOM     24  O   LIG d   1      -6.592  74.363 117.157  0.00  0.00    -0.241 OA
ENDBRANCH   3  22
TORSDOF 7
ENDMDL
MODEL 8
REMARK VINA RESULT:      -4.9     14.296     17.023
REMARK  7 active torsions:
REMARK  status: ('A' for Active; 'I' for Inactive)
REMARK    1  A    between atoms: C_2  and  C_3 
REMARK    2  A    between atoms: C_3  and  O_6 
REMARK    3  A    between atoms: C_3  and  C_4 
REMARK    4  A    between atoms: C_7  and  O_6 
REMARK    5  A    between atoms: C_9  and  C_10 
REMARK    6  A    between atoms: N_15  and  C_14 
REMARK    7  A    between atoms: N_20  and  C_19 
REMARK       I    between atoms: C_22  and  N_20 
ROOT
ATOM      1  C   LIG d   1      -4.476  76.942 117.637  0.00  0.00     0.161 C 
ATOM      2  C   LIG d   1      -5.288  78.086 117.565  0.00  0.00     0.016 C 
ATOM      3  C   LIG d   1      -4.775  79.400 117.465  0.00  0.00     0.038 C 
ATOM      4  C   LIG d   1      -3.408  79.649 117.275  0.00  0.00     0.028 C 
ATOM      5  C   LIG d   1      -2.508  78.559 117.846  0.00  0.00    -0.047 C 
ATOM      6  C   LIG d   1      -2.986  77.187 117.319  0.00  0.00     0.091 C 
ENDROOT
BRANCH   1   7
ATOM      7  O   LIG d   1      -5.008  75.911 116.781  0.00  0.00    -0.368 OA
BRANCH   7   8
ATOM      8  C   LIG d   1      -6.229  76.238 116.073  0.00  0.00     0.119 C 
BRANCH   8   9
ATOM      9  C   LIG d   1      -7.294  75.204 116.485  0.00  0.00     0.028 C 
ATOM     10  C   LIG d   1      -6.825  73.757 116.261  0.00  0.00     0.006 C 
ENDBRANCH   8   9
BRANCH   8  11
ATOM     11  C   LIG d   1      -6.059  76.064 114.561  0.00  0.00     0.028 C 
ATOM     12  C   LIG d   1      -4.605  76.255 114.099  0.00  0.00     0.006 C 
ENDBRANCH   8  11
ENDBRANCH   7   8
ENDBRANCH   1   7
BRANCH   6  13
ATOM     13  N   LIG d   1      -2.212  76.057 117.896  0.00  0.00    -0.311 N 
ATOM     14  C   LIG d   1      -1.654  75.098 117.159  0.00  0.00     0.210 C 
ATOM     15  C   LIG d   1      -0.917  74.016 117.956  0.00  0.00     0.109 C 
ATOM     16  O   LIG d   1      -1.672  75.058 115.920  0.00  0.00    -0.276 OA
ATOM     17  H   LIG d   1      -2.121  76.028 118.893  0.00  0.00     0.149 HD
ENDBRANCH   6  13
BRANCH   5  18
ATOM     18  N   LIG d   1      -1.121  78.877 117.458  0.00  0.00     0.381 N 
ATOM     19  H   LIG d   1      -0.579  79.080 118.274  0.00  0.00    -0.090 HD
ATOM     20  H   LIG d   1      -1.126  79.693 116.872  0.00  0.00    -0.090 HD
ATOM     21  H   LIG d   1      -0.720  78.109 116.967  0.00  0.00    -0.090 HD
ENDBRANCH   5  18
BRANCH   3  22
ATOM     22  C   LIG d   1      -5.631  80.484 117.594  0.00  0.00     0.382 C 
ATOM     23  O   LIG d   1      -5.355  81.408 118.396  0.00  0.00    -0.241 OA
ATOM     24  O   LIG d   1      -6.697  80.527 116.951  0.00  0.00    -0.241 OA
ENDBRANCH   3  22
TORSDOF 7
ENDMDL
MODEL 9
REMARK VINA RESULT:      -4.8     13.641     15.846
REMARK  7 active torsions:
REMARK  status: ('A' for Active; 'I' for Inactive)
REMARK    1  A    between atoms: C_2  and  C_3 
REMARK    2  A    between atoms: C_3  and  O_6 
REMARK    3  A    between atoms: C_3  and  C_4 
REMARK    4  A    between atoms: C_7  and  O_6 
REMARK    5  A    between atoms: C_9  and  C_10 
REMARK    6  A    between atoms: N_15  and  C_14 
REMARK    7  A    between atoms: N_20  and  C_19 
REMARK       I    between atoms: C_22  and  N_20 
ROOT
ATOM      1  C   LIG d   1      -5.288  78.307 116.997  0.00  0.00     0.161 C 
ATOM      2  C   LIG d   1      -4.638  77.460 116.084  0.00  0.00     0.016 C 
ATOM      3  C   LIG d   1      -5.295  76.427 115.377  0.00  0.00     0.038 C 
ATOM      4  C   LIG d   1      -6.688  76.267 115.421  0.00  0.00     0.028 C 
ATOM      5  C   LIG d   1      -7.314  76.775 116.716  0.00  0.00    -0.047 C 
ATOM      6  C   LIG d   1      -6.829  78.219 116.975  0.00  0.00     0.091 C 
ENDROOT
BRANCH   1   7
ATOM      7  O   LIG d   1      -4.860  79.667 116.791  0.00  0.00    -0.368 OA
BRANCH   7   8
ATOM      8  C   LIG d   1      -3.943  80.203 117.777  0.00  0.00     0.119 C 
BRANCH   8   9
ATOM      9  C   LIG d   1      -2.514  79.990 117.243  0.00  0.00     0.028 C 
ATOM     10  C   LIG d   1      -1.719  78.975 118.082  0.00  0.00     0.006 C 
ENDBRANCH   8   9
BRANCH   8  11
ATOM     11  C   LIG d   1      -4.009  79.413 119.087  0.00  0.00     0.028 C 
ATOM     12  C   LIG d   1      -4.585  80.235 120.251  0.00  0.00     0.006 C 
ENDBRANCH   8  11
ENDBRANCH   7   8
ENDBRANCH   1   7
BRANCH   6  13
ATOM     13  N   LIG d   1      -7.328  78.762 118.266  0.00  0.00    -0.311 N 
ATOM     14  C   LIG d   1      -7.903  79.957 118.385  0.00  0.00     0.210 C 
ATOM     15  C   LIG d   1      -8.328  80.332 119.808  0.00  0.00     0.109 C 
ATOM     16  O   LIG d   1      -8.131  80.730 117.442  0.00  0.00    -0.276 OA
ATOM     17  H   LIG d   1      -7.212  78.188 119.077  0.00  0.00     0.149 HD
ENDBRANCH   6  13
BRANCH   5  18
ATOM     18  N   LIG d   1      -8.779  76.675 116.571  0.00  0.00     0.381 N 
ATOM     19  H   LIG d   1      -9.166  77.582 116.406  0.00  0.00    -0.090 HD
ATOM     20  H   LIG d   1      -9.166  76.317 117.427  0.00  0.00    -0.090 HD
ATOM     21  H   LIG d   1      -9.006  76.066 115.815  0.00  0.00    -0.090 HD
ENDBRANCH   5  18
BRANCH   3  22
ATOM     22  C   LIG d   1      -4.550  75.515 114.644  0.00  0.00     0.382 C 
ATOM     23  O   LIG d   1      -3.314  75.416 114.836  0.00  0.00    -0.241 OA
ATOM     24  O   LIG d   1      -5.092  74.820 113.763  0.00  0.00    -0.241 OA
ENDBRANCH   3  22
TORSDOF 7
ENDMDL
