MODEL 1
REMARK VINA RESULT:      -5.6      0.000      0.000
REMARK  7 active torsions:
REMARK  status: ('A' for Active; 'I' for Inactive)
REMARK    1  A    between atoms: C_2  and  C_3 
REMARK    2  A    between atoms: C_3  and  O_6 
REMARK    3  A    between atoms: C_3  and  C_4 
REMARK    4  A    between atoms: C_7  and  O_6 
REMARK    5  A    between atoms: C_9  and  C_10 
REMARK    6  A    between atoms: N_15  and  C_14 
REMARK    7  A    between atoms: N_20  and  C_19 
REMARK       I    between atoms: C_22  and  N_20 
ROOT
ATOM      1  C   LIG d   1      -4.410  89.981 116.937  0.00  0.00     0.161 C 
ATOM      2  C   LIG d   1      -3.926  89.034 116.020  0.00  0.00     0.016 C 
ATOM      3  C   LIG d   1      -4.707  88.497 114.970  0.00  0.00     0.038 C 
ATOM      4  C   LIG d   1      -5.988  88.987 114.674  0.00  0.00     0.028 C 
ATOM      5  C   LIG d   1      -6.703  89.583 115.881  0.00  0.00    -0.047 C 
ATOM      6  C   LIG d   1      -5.769  90.610 116.562  0.00  0.00     0.091 C 
ENDROOT
BRANCH   1   7
ATOM      7  O   LIG d   1      -3.422  91.010 117.144  0.00  0.00    -0.368 OA
BRANCH   7   8
ATOM      8  C   LIG d   1      -2.681  90.942 118.387  0.00  0.00     0.119 C 
BRANCH   8   9
ATOM      9  C   LIG d   1      -2.705  92.347 119.019  0.00  0.00     0.028 C 
ATOM     10  C   LIG d   1      -2.407  93.456 117.995  0.00  0.00     0.006 C 
ENDBRANCH   8   9
BRANCH   8  11
ATOM     11  C   LIG d   1      -1.202  90.635 118.137  0.00  0.00     0.028 C 
ATOM     12  C   LIG d   1      -0.427  90.341 119.432  0.00  0.00     0.006 C 
ENDBRANCH   8  11
ENDBRANCH   7   8
ENDBRANCH   1   7
BRANCH   6  13
ATOM     13  N   LIG d   1      -6.359  91.179 117.801  0.00  0.00    -0.311 N 
ATOM     14  C   LIG d   1      -6.319  92.475 118.104  0.00  0.00     0.210 C 
ATOM     15  C   LIG d   1      -6.970  92.847 119.440  0.00  0.00     0.109 C 
ATOM     16  O   LIG d   1      -5.835  93.356 117.378  0.00  0.00    -0.276 OA
ATOM     17  H   LIG d   1      -6.799  90.538 118.433  0.00  0.00     0.149 HD
ENDBRANCH   6  13
BRANCH   5  18
ATOM     18  N   LIG d   1      -7.965  90.178 115.403  0.00  0.00     0.381 N 
ATOM     19  H   LIG d   1      -7.856  91.167 115.302  0.00  0.00    -0.090 HD
ATOM     20  H   LIG d   1      -8.683  90.008 116.085  0.00  0.00    -0.090 HD
ATOM     21  H   LIG d   1      -8.223  89.774 114.530  0.00  0.00    -0.090 HD
ENDBRANCH   5  18
BRANCH   3  22
ATOM     22  C   LIG d   1      -4.222  87.430 114.230  0.00  0.00     0.382 C 
ATOM     23  O   LIG d   1      -4.787  87.103 113.158  0.00  0.00    -0.241 OA
ATOM     24  O   LIG d   1      -3.254  86.763 114.642  0.00  0.00    -0.241 OA
ENDBRANCH   3  22
TORSDOF 7
ENDMDL
MODEL 2
REMARK VINA RESULT:      -5.2      2.466      4.453
REMARK  7 active torsions:
REMARK  status: ('A' for Active; 'I' for Inactive)
REMARK    1  A    between atoms: C_2  and  C_3 
REMARK    2  A    between atoms: C_3  and  O_6 
REMARK    3  A    between atoms: C_3  and  C_4 
REMARK    4  A    between atoms: C_7  and  O_6 
REMARK    5  A    between atoms: C_9  and  C_10 
REMARK    6  A    between atoms: N_15  and  C_14 
REMARK    7  A    between atoms: N_20  and  C_19 
REMARK       I    between atoms: C_22  and  N_20 
ROOT
ATOM      1  C   LIG d   1      -4.213  91.034 117.038  0.00  0.00     0.161 C 
ATOM      2  C   LIG d   1      -5.310  91.521 116.308  0.00  0.00     0.016 C 
ATOM      3  C   LIG d   1      -5.890  90.829 115.220  0.00  0.00     0.038 C 
ATOM      4  C   LIG d   1      -5.505  89.523 114.882  0.00  0.00     0.028 C 
ATOM      5  C   LIG d   1      -4.066  89.198 115.268  0.00  0.00    -0.047 C 
ATOM      6  C   LIG d   1      -3.850  89.562 116.755  0.00  0.00     0.091 C 
ENDROOT
BRANCH   1   7
ATOM      7  O   LIG d   1      -4.438  91.233 118.448  0.00  0.00    -0.368 OA
BRANCH   7   8
ATOM      8  C   LIG d   1      -4.129  92.551 118.963  0.00  0.00     0.119 C 
BRANCH   8   9
ATOM      9  C   LIG d   1      -2.759  92.465 119.664  0.00  0.00     0.028 C 
ATOM     10  C   LIG d   1      -2.558  91.128 120.398  0.00  0.00     0.006 C 
ENDBRANCH   8   9
BRANCH   8  11
ATOM     11  C   LIG d   1      -5.118  92.968 120.056  0.00  0.00     0.028 C 
ATOM     12  C   LIG d   1      -6.443  92.194 119.987  0.00  0.00     0.006 C 
ENDBRANCH   8  11
ENDBRANCH   7   8
ENDBRANCH   1   7
BRANCH   6  13
ATOM     13  N   LIG d   1      -2.445  89.353 117.192  0.00  0.00    -0.311 N 
ATOM     14  C   LIG d   1      -2.024  88.246 117.800  0.00  0.00     0.210 C 
ATOM     15  C   LIG d   1      -0.541  88.244 118.185  0.00  0.00     0.109 C 
ATOM     16  O   LIG d   1      -2.730  87.252 118.030  0.00  0.00    -0.276 OA
ATOM     17  H   LIG d   1      -1.798  90.096 117.017  0.00  0.00     0.149 HD
ENDBRANCH   6  13
BRANCH   5  18
ATOM     18  N   LIG d   1      -3.841  87.768 114.985  0.00  0.00     0.381 N 
ATOM     19  H   LIG d   1      -4.480  87.458 114.280  0.00  0.00    -0.090 HD
ATOM     20  H   LIG d   1      -4.014  87.239 115.821  0.00  0.00    -0.090 HD
ATOM     21  H   LIG d   1      -2.903  87.623 114.680  0.00  0.00    -0.090 HD
ENDBRANCH   5  18
BRANCH   3  22
ATOM     22  C   LIG d   1      -6.841  91.460 114.432  0.00  0.00     0.382 C 
ATOM     23  O   LIG d   1      -7.243  90.914 113.377  0.00  0.00    -0.241 OA
ATOM     24  O   LIG d   1      -7.269  92.589 114.741  0.00  0.00    -0.241 OA
ENDBRANCH   3  22
TORSDOF 7
ENDMDL
MODEL 3
REMARK VINA RESULT:      -5.0      2.609      4.564
REMARK  7 active torsions:
REMARK  status: ('A' for Active; 'I' for Inactive)
REMARK    1  A    between atoms: C_2  and  C_3 
REMARK    2  A    between atoms: C_3  and  O_6 
REMARK    3  A    between atoms: C_3  and  C_4 
REMARK    4  A    between atoms: C_7  and  O_6 
REMARK    5  A    between atoms: C_9  and  C_10 
REMARK    6  A    between atoms: N_15  and  C_14 
REMARK    7  A    between atoms: N_20  and  C_19 
REMARK       I    between atoms: C_22  and  N_20 
ROOT
ATOM      1  C   LIG d   1      -4.526  92.385 117.071  0.00  0.00     0.161 C 
ATOM      2  C   LIG d   1      -5.695  91.768 116.598  0.00  0.00     0.016 C 
ATOM      3  C   LIG d   1      -5.797  90.380 116.347  0.00  0.00     0.038 C 
ATOM      4  C   LIG d   1      -4.774  89.487 116.699  0.00  0.00     0.028 C 
ATOM      5  C   LIG d   1      -3.389  90.125 116.710  0.00  0.00    -0.047 C 
ATOM      6  C   LIG d   1      -3.436  91.411 117.567  0.00  0.00     0.091 C 
ENDROOT
BRANCH   1   7
ATOM      7  O   LIG d   1      -4.857  93.333 118.105  0.00  0.00    -0.368 OA
BRANCH   7   8
ATOM      8  C   LIG d   1      -6.020  93.018 118.910  0.00  0.00     0.119 C 
BRANCH   8   9
ATOM      9  C   LIG d   1      -6.827  94.318 119.087  0.00  0.00     0.028 C 
ATOM     10  C   LIG d   1      -7.276  94.918 117.744  0.00  0.00     0.006 C 
ENDBRANCH   8   9
BRANCH   8  11
ATOM     11  C   LIG d   1      -5.619  92.593 120.326  0.00  0.00     0.028 C 
ATOM     12  C   LIG d   1      -6.711  91.777 121.035  0.00  0.00     0.006 C 
ENDBRANCH   8  11
ENDBRANCH   7   8
ENDBRANCH   1   7
BRANCH   6  13
ATOM     13  N   LIG d   1      -2.142  92.143 117.561  0.00  0.00    -0.311 N 
ATOM     14  C   LIG d   1      -1.204  91.979 118.492  0.00  0.00     0.210 C 
ATOM     15  C   LIG d   1       0.046  92.846 118.310  0.00  0.00     0.109 C 
ATOM     16  O   LIG d   1      -1.274  91.175 119.434  0.00  0.00    -0.276 OA
ATOM     17  H   LIG d   1      -1.989  92.793 116.816  0.00  0.00     0.149 HD
ENDBRANCH   6  13
BRANCH   5  18
ATOM     18  N   LIG d   1      -2.440  89.121 117.226  0.00  0.00     0.381 N 
ATOM     19  H   LIG d   1      -1.504  89.463 117.139  0.00  0.00    -0.090 HD
ATOM     20  H   LIG d   1      -2.522  88.283 116.677  0.00  0.00    -0.090 HD
ATOM     21  H   LIG d   1      -2.640  88.921 118.182  0.00  0.00    -0.090 HD
ENDBRANCH   5  18
BRANCH   3  22
ATOM     22  C   LIG d   1      -6.916  89.879 115.700  0.00  0.00     0.382 C 
ATOM     23  O   LIG d   1      -7.242  88.677 115.853  0.00  0.00    -0.241 OA
ATOM     24  O   LIG d   1      -7.578  90.601 114.932  0.00  0.00    -0.241 OA
ENDBRANCH   3  22
TORSDOF 7
ENDMDL
MODEL 4
REMARK VINA RESULT:      -5.0      1.921      2.602
REMARK  7 active torsions:
REMARK  status: ('A' for Active; 'I' for Inactive)
REMARK    1  A    between atoms: C_2  and  C_3 
REMARK    2  A    between atoms: C_3  and  O_6 
REMARK    3  A    between atoms: C_3  and  C_4 
REMARK    4  A    between atoms: C_7  and  O_6 
REMARK    5  A    between atoms: C_9  and  C_10 
REMARK    6  A    between atoms: N_15  and  C_14 
REMARK    7  A    between atoms: N_20  and  C_19 
REMARK       I    between atoms: C_22  and  N_20 
ROOT
ATOM      1  C   LIG d   1      -3.535  90.882 117.579  0.00  0.00     0.161 C 
ATOM      2  C   LIG d   1      -3.899  89.859 116.688  0.00  0.00     0.016 C 
ATOM      3  C   LIG d   1      -4.988  89.957 115.792  0.00  0.00     0.038 C 
ATOM      4  C   LIG d   1      -5.699  91.154 115.619  0.00  0.00     0.028 C 
ATOM      5  C   LIG d   1      -5.690  92.048 116.854  0.00  0.00    -0.047 C 
ATOM      6  C   LIG d   1      -4.230  92.236 117.326  0.00  0.00     0.091 C 
ENDROOT
BRANCH   1   7
ATOM      7  O   LIG d   1      -2.103  91.046 117.576  0.00  0.00    -0.368 OA
BRANCH   7   8
ATOM      8  C   LIG d   1      -1.363  90.202 118.492  0.00  0.00     0.119 C 
BRANCH   8   9
ATOM      9  C   LIG d   1      -1.749  90.622 119.923  0.00  0.00     0.028 C 
ATOM     10  C   LIG d   1      -0.859  91.755 120.463  0.00  0.00     0.006 C 
ENDBRANCH   8   9
BRANCH   8  11
ATOM     11  C   LIG d   1       0.144  90.454 118.388  0.00  0.00     0.028 C 
ATOM     12  C   LIG d   1       0.603  90.736 116.949  0.00  0.00     0.006 C 
ENDBRANCH   8  11
ENDBRANCH   7   8
ENDBRANCH   1   7
BRANCH   6  13
ATOM     13  N   LIG d   1      -4.138  93.030 118.579  0.00  0.00    -0.311 N 
ATOM     14  C   LIG d   1      -3.239  93.994 118.772  0.00  0.00     0.210 C 
ATOM     15  C   LIG d   1      -3.304  94.674 120.143  0.00  0.00     0.109 C 
ATOM     16  O   LIG d   1      -2.416  94.373 117.925  0.00  0.00    -0.276 OA
ATOM     17  H   LIG d   1      -4.788  92.810 119.308  0.00  0.00     0.149 HD
ENDBRANCH   6  13
BRANCH   5  18
ATOM     18  N   LIG d   1      -6.348  93.317 116.491  0.00  0.00     0.381 N 
ATOM     19  H   LIG d   1      -5.882  94.081 116.938  0.00  0.00    -0.090 HD
ATOM     20  H   LIG d   1      -7.299  93.295 116.815  0.00  0.00    -0.090 HD
ATOM     21  H   LIG d   1      -6.329  93.440 115.502  0.00  0.00    -0.090 HD
ENDBRANCH   5  18
BRANCH   3  22
ATOM     22  C   LIG d   1      -5.401  88.838 115.086  0.00  0.00     0.382 C 
ATOM     23  O   LIG d   1      -6.529  88.823 114.538  0.00  0.00    -0.241 OA
ATOM     24  O   LIG d   1      -4.677  87.826 115.027  0.00  0.00    -0.241 OA
ENDBRANCH   3  22
TORSDOF 7
ENDMDL
MODEL 5
REMARK VINA RESULT:      -4.9      2.151      3.273
REMARK  7 active torsions:
REMARK  status: ('A' for Active; 'I' for Inactive)
REMARK    1  A    between atoms: C_2  and  C_3 
REMARK    2  A    between atoms: C_3  and  O_6 
REMARK    3  A    between atoms: C_3  and  C_4 
REMARK    4  A    between atoms: C_7  and  O_6 
REMARK    5  A    between atoms: C_9  and  C_10 
REMARK    6  A    between atoms: N_15  and  C_14 
REMARK    7  A    between atoms: N_20  and  C_19 
REMARK       I    between atoms: C_22  and  N_20 
ROOT
ATOM      1  C   LIG d   1      -3.515  90.397 117.519  0.00  0.00     0.161 C 
ATOM      2  C   LIG d   1      -4.311  89.559 116.721  0.00  0.00     0.016 C 
ATOM      3  C   LIG d   1      -5.505  89.986 116.094  0.00  0.00     0.038 C 
ATOM      4  C   LIG d   1      -5.905  91.331 116.101  0.00  0.00     0.028 C 
ATOM      5  C   LIG d   1      -5.402  92.107 117.313  0.00  0.00    -0.047 C 
ATOM      6  C   LIG d   1      -3.876  91.895 117.446  0.00  0.00     0.091 C 
ENDROOT
BRANCH   1   7
ATOM      7  O   LIG d   1      -2.124  90.201 117.196  0.00  0.00    -0.368 OA
BRANCH   7   8
ATOM      8  C   LIG d   1      -1.338  89.476 118.174  0.00  0.00     0.119 C 
BRANCH   8   9
ATOM      9  C   LIG d   1      -0.063  90.299 118.445  0.00  0.00     0.028 C 
ATOM     10  C   LIG d   1       0.456  91.009 117.184  0.00  0.00     0.006 C 
ENDBRANCH   8   9
BRANCH   8  11
ATOM     11  C   LIG d   1      -0.846  88.139 117.614  0.00  0.00     0.028 C 
ATOM     12  C   LIG d   1      -1.790  86.972 117.943  0.00  0.00     0.006 C 
ENDBRANCH   8  11
ENDBRANCH   7   8
ENDBRANCH   1   7
BRANCH   6  13
ATOM     13  N   LIG d   1      -3.317  92.552 118.656  0.00  0.00    -0.311 N 
ATOM     14  C   LIG d   1      -2.294  93.406 118.620  0.00  0.00     0.210 C 
ATOM     15  C   LIG d   1      -1.861  93.953 119.983  0.00  0.00     0.109 C 
ATOM     16  O   LIG d   1      -1.726  93.785 117.585  0.00  0.00    -0.276 OA
ATOM     17  H   LIG d   1      -3.738  92.325 119.535  0.00  0.00     0.149 HD
ENDBRANCH   6  13
BRANCH   5  18
ATOM     18  N   LIG d   1      -5.774  93.522 117.122  0.00  0.00     0.381 N 
ATOM     19  H   LIG d   1      -4.963  94.057 116.886  0.00  0.00    -0.090 HD
ATOM     20  H   LIG d   1      -6.148  93.878 117.984  0.00  0.00    -0.090 HD
ATOM     21  H   LIG d   1      -6.455  93.601 116.398  0.00  0.00    -0.090 HD
ENDBRANCH   5  18
BRANCH   3  22
ATOM     22  C   LIG d   1      -6.333  89.055 115.486  0.00  0.00     0.382 C 
ATOM     23  O   LIG d   1      -6.045  88.609 114.349  0.00  0.00    -0.241 OA
ATOM     24  O   LIG d   1      -7.386  88.689 116.040  0.00  0.00    -0.241 OA
ENDBRANCH   3  22
TORSDOF 7
ENDMDL
MODEL 6
REMARK VINA RESULT:      -4.7     17.319     19.760
REMARK  7 active torsions:
REMARK  status: ('A' for Active; 'I' for Inactive)
REMARK    1  A    between atoms: C_2  and  C_3 
REMARK    2  A    between atoms: C_3  and  O_6 
REMARK    3  A    between atoms: C_3  and  C_4 
REMARK    4  A    between atoms: C_7  and  O_6 
REMARK    5  A    between atoms: C_9  and  C_10 
REMARK    6  A    between atoms: N_15  and  C_14 
REMARK    7  A    between atoms: N_20  and  C_19 
REMARK       I    between atoms: C_22  and  N_20 
ROOT
ATOM      1  C   LIG d   1      11.035  79.914 114.978  0.00  0.00     0.161 C 
ATOM      2  C   LIG d   1       9.674  80.049 115.299  0.00  0.00     0.016 C 
ATOM      3  C   LIG d   1       8.780  78.956 115.375  0.00  0.00     0.038 C 
ATOM      4  C   LIG d   1       9.224  77.628 115.281  0.00  0.00     0.028 C 
ATOM      5  C   LIG d   1      10.497  77.471 114.457  0.00  0.00    -0.047 C 
ATOM      6  C   LIG d   1      11.560  78.463 114.981  0.00  0.00     0.091 C 
ENDROOT
BRANCH   1   7
ATOM      7  O   LIG d   1      11.828  80.737 115.856  0.00  0.00    -0.368 OA
BRANCH   7   8
ATOM      8  C   LIG d   1      12.079  80.199 117.178  0.00  0.00     0.119 C 
BRANCH   8   9
ATOM      9  C   LIG d   1      11.562  81.228 118.202  0.00  0.00     0.028 C 
ATOM     10  C   LIG d   1      11.348  82.618 117.580  0.00  0.00     0.006 C 
ENDBRANCH   8   9
BRANCH   8  11
ATOM     11  C   LIG d   1      13.581  80.073 117.453  0.00  0.00     0.028 C 
ATOM     12  C   LIG d   1      14.439  80.831 116.428  0.00  0.00     0.006 C 
ENDBRANCH   8  11
ENDBRANCH   7   8
ENDBRANCH   1   7
BRANCH   6  13
ATOM     13  N   LIG d   1      12.808  78.435 114.176  0.00  0.00    -0.311 N 
ATOM     14  C   LIG d   1      13.878  77.714 114.507  0.00  0.00     0.210 C 
ATOM     15  C   LIG d   1      15.067  77.843 113.549  0.00  0.00     0.109 C 
ATOM     16  O   LIG d   1      13.944  76.954 115.485  0.00  0.00    -0.276 OA
ATOM     17  H   LIG d   1      12.830  78.998 113.348  0.00  0.00     0.149 HD
ENDBRANCH   6  13
BRANCH   5  18
ATOM     18  N   LIG d   1      10.922  76.062 114.556  0.00  0.00     0.381 N 
ATOM     19  H   LIG d   1      11.645  75.879 113.890  0.00  0.00    -0.090 HD
ATOM     20  H   LIG d   1      10.138  75.471 114.342  0.00  0.00    -0.090 HD
ATOM     21  H   LIG d   1      11.251  75.870 115.477  0.00  0.00    -0.090 HD
ENDBRANCH   5  18
BRANCH   3  22
ATOM     22  C   LIG d   1       7.420  79.188 115.507  0.00  0.00     0.382 C 
ATOM     23  O   LIG d   1       6.644  78.927 114.556  0.00  0.00    -0.241 OA
ATOM     24  O   LIG d   1       6.964  79.697 116.548  0.00  0.00    -0.241 OA
ENDBRANCH   3  22
TORSDOF 7
ENDMDL
MODEL 7
REMARK VINA RESULT:      -4.5     25.096     27.676
REMARK  7 active torsions:
REMARK  status: ('A' for Active; 'I' for Inactive)
REMARK    1  A    between atoms: C_2  and  C_3 
REMARK    2  A    between atoms: C_3  and  O_6 
REMARK    3  A    between atoms: C_3  and  C_4 
REMARK    4  A    between atoms: C_7  and  O_6 
REMARK    5  A    between atoms: C_9  and  C_10 
REMARK    6  A    between atoms: N_15  and  C_14 
REMARK    7  A    between atoms: N_20  and  C_19 
REMARK       I    between atoms: C_22  and  N_20 
ROOT
ATOM      1  C   LIG d   1     -16.742  66.296 118.242  0.00  0.00     0.161 C 
ATOM      2  C   LIG d   1     -17.014  67.638 117.927  0.00  0.00     0.016 C 
ATOM      3  C   LIG d   1     -16.322  68.728 118.503  0.00  0.00     0.038 C 
ATOM      4  C   LIG d   1     -15.200  68.543 119.325  0.00  0.00     0.028 C 
ATOM      5  C   LIG d   1     -15.206  67.211 120.067  0.00  0.00    -0.047 C 
ATOM      6  C   LIG d   1     -15.447  66.071 119.051  0.00  0.00     0.091 C 
ENDROOT
BRANCH   1   7
ATOM      7  O   LIG d   1     -16.722  65.506 117.036  0.00  0.00    -0.368 OA
BRANCH   7   8
ATOM      8  C   LIG d   1     -17.923  64.748 116.751  0.00  0.00     0.119 C 
BRANCH   8   9
ATOM      9  C   LIG d   1     -17.690  63.308 117.247  0.00  0.00     0.028 C 
ATOM     10  C   LIG d   1     -18.471  62.997 118.535  0.00  0.00     0.006 C 
ENDBRANCH   8   9
BRANCH   8  11
ATOM     11  C   LIG d   1     -18.159  64.624 115.243  0.00  0.00     0.028 C 
ATOM     12  C   LIG d   1     -18.403  63.175 114.795  0.00  0.00     0.006 C 
ENDBRANCH   8  11
ENDBRANCH   7   8
ENDBRANCH   1   7
BRANCH   6  13
ATOM     13  N   LIG d   1     -15.552  64.741 119.706  0.00  0.00    -0.311 N 
ATOM     14  C   LIG d   1     -14.528  63.896 119.816  0.00  0.00     0.210 C 
ATOM     15  C   LIG d   1     -14.857  62.570 120.509  0.00  0.00     0.109 C 
ATOM     16  O   LIG d   1     -13.372  64.132 119.434  0.00  0.00    -0.276 OA
ATOM     17  H   LIG d   1     -16.447  64.482 120.072  0.00  0.00     0.149 HD
ENDBRANCH   6  13
BRANCH   5  18
ATOM     18  N   LIG d   1     -13.918  67.090 120.776  0.00  0.00     0.381 N 
ATOM     19  H   LIG d   1     -14.042  66.563 121.617  0.00  0.00    -0.090 HD
ATOM     20  H   LIG d   1     -13.596  68.009 121.025  0.00  0.00    -0.090 HD
ATOM     21  H   LIG d   1     -13.247  66.643 120.191  0.00  0.00    -0.090 HD
ENDBRANCH   5  18
BRANCH   3  22
ATOM     22  C   LIG d   1     -16.776  70.020 118.289  0.00  0.00     0.382 C 
ATOM     23  O   LIG d   1     -17.702  70.484 118.997  0.00  0.00    -0.241 OA
ATOM     24  O   LIG d   1     -16.301  70.713 117.369  0.00  0.00    -0.241 OA
ENDBRANCH   3  22
TORSDOF 7
ENDMDL
MODEL 8
REMARK VINA RESULT:      -4.4      2.868      4.540
REMARK  7 active torsions:
REMARK  status: ('A' for Active; 'I' for Inactive)
REMARK    1  A    between atoms: C_2  and  C_3 
REMARK    2  A    between atoms: C_3  and  O_6 
REMARK    3  A    between atoms: C_3  and  C_4 
REMARK    4  A    between atoms: C_7  and  O_6 
REMARK    5  A    between atoms: C_9  and  C_10 
REMARK    6  A    between atoms: N_15  and  C_14 
REMARK    7  A    between atoms: N_20  and  C_19 
REMARK       I    between atoms: C_22  and  N_20 
ROOT
ATOM      1  C   LIG d   1      -3.073  89.666 117.797  0.00  0.00     0.161 C 
ATOM      2  C   LIG d   1      -4.100  89.287 116.917  0.00  0.00     0.016 C 
ATOM      3  C   LIG d   1      -5.015  90.203 116.347  0.00  0.00     0.038 C 
ATOM      4  C   LIG d   1      -4.869  91.590 116.503  0.00  0.00     0.028 C 
ATOM      5  C   LIG d   1      -4.152  91.983 117.789  0.00  0.00    -0.047 C 
ATOM      6  C   LIG d   1      -2.830  91.187 117.891  0.00  0.00     0.091 C 
ENDROOT
BRANCH   1   7
ATOM      7  O   LIG d   1      -1.853  88.985 117.447  0.00  0.00    -0.368 OA
BRANCH   7   8
ATOM      8  C   LIG d   1      -1.851  87.547 117.628  0.00  0.00     0.119 C 
BRANCH   8   9
ATOM      9  C   LIG d   1      -1.348  87.261 119.056  0.00  0.00     0.028 C 
ATOM     10  C   LIG d   1      -2.101  86.097 119.722  0.00  0.00     0.006 C 
ENDBRANCH   8   9
BRANCH   8  11
ATOM     11  C   LIG d   1      -0.840  86.870 116.698  0.00  0.00     0.028 C 
ATOM     12  C   LIG d   1      -1.508  85.967 115.648  0.00  0.00     0.006 C 
ENDBRANCH   8  11
ENDBRANCH   7   8
ENDBRANCH   1   7
BRANCH   6  13
ATOM     13  N   LIG d   1      -2.106  91.450 119.162  0.00  0.00    -0.311 N 
ATOM     14  C   LIG d   1      -0.894  92.000 119.215  0.00  0.00     0.210 C 
ATOM     15  C   LIG d   1      -0.321  92.164 120.626  0.00  0.00     0.109 C 
ATOM     16  O   LIG d   1      -0.254  92.396 118.230  0.00  0.00    -0.276 OA
ATOM     17  H   LIG d   1      -2.567  91.188 120.011  0.00  0.00     0.149 HD
ENDBRANCH   6  13
BRANCH   5  18
ATOM     18  N   LIG d   1      -3.947  93.443 117.757  0.00  0.00     0.381 N 
ATOM     19  H   LIG d   1      -3.948  93.764 116.809  0.00  0.00    -0.090 HD
ATOM     20  H   LIG d   1      -3.051  93.655 118.160  0.00  0.00    -0.090 HD
ATOM     21  H   LIG d   1      -4.667  93.901 118.271  0.00  0.00    -0.090 HD
ENDBRANCH   5  18
BRANCH   3  22
ATOM     22  C   LIG d   1      -6.113  89.730 115.645  0.00  0.00     0.382 C 
ATOM     23  O   LIG d   1      -6.683  88.674 116.009  0.00  0.00    -0.241 OA
ATOM     24  O   LIG d   1      -6.514  90.323 114.626  0.00  0.00    -0.241 OA
ENDBRANCH   3  22
TORSDOF 7
ENDMDL
MODEL 9
REMARK VINA RESULT:      -4.3      2.161      3.080
REMARK  7 active torsions:
REMARK  status: ('A' for Active; 'I' for Inactive)
REMARK    1  A    between atoms: C_2  and  C_3 
REMARK    2  A    between atoms: C_3  and  O_6 
REMARK    3  A    between atoms: C_3  and  C_4 
REMARK    4  A    between atoms: C_7  and  O_6 
REMARK    5  A    between atoms: C_9  and  C_10 
REMARK    6  A    between atoms: N_15  and  C_14 
REMARK    7  A    between atoms: N_20  and  C_19 
REMARK       I    between atoms: C_22  and  N_20 
ROOT
ATOM      1  C   LIG d   1      -4.874  91.256 118.326  0.00  0.00     0.161 C 
ATOM      2  C   LIG d   1      -5.044  90.455 117.184  0.00  0.00     0.016 C 
ATOM      3  C   LIG d   1      -5.727  90.889 116.024  0.00  0.00     0.038 C 
ATOM      4  C   LIG d   1      -6.158  92.215 115.870  0.00  0.00     0.028 C 
ATOM      5  C   LIG d   1      -6.454  92.914 117.193  0.00  0.00    -0.047 C 
ATOM      6  C   LIG d   1      -5.239  92.743 118.134  0.00  0.00     0.091 C 
ENDROOT
BRANCH   1   7
ATOM      7  O   LIG d   1      -3.523  91.131 118.812  0.00  0.00    -0.368 OA
BRANCH   7   8
ATOM      8  C   LIG d   1      -2.477  91.572 117.911  0.00  0.00     0.119 C 
BRANCH   8   9
ATOM      9  C   LIG d   1      -1.429  90.445 117.832  0.00  0.00     0.028 C 
ATOM     10  C   LIG d   1      -1.804  89.232 118.700  0.00  0.00     0.006 C 
ENDBRANCH   8   9
BRANCH   8  11
ATOM     11  C   LIG d   1      -1.729  92.783 118.476  0.00  0.00     0.028 C 
ATOM     12  C   LIG d   1      -1.749  92.833 120.011  0.00  0.00     0.006 C 
ENDBRANCH   8  11
ENDBRANCH   7   8
ENDBRANCH   1   7
BRANCH   6  13
ATOM     13  N   LIG d   1      -5.478  93.325 119.480  0.00  0.00    -0.311 N 
ATOM     14  C   LIG d   1      -5.060  94.537 119.840  0.00  0.00     0.210 C 
ATOM     15  C   LIG d   1      -5.395  94.935 121.281  0.00  0.00     0.109 C 
ATOM     16  O   LIG d   1      -4.472  95.333 119.092  0.00  0.00    -0.276 OA
ATOM     17  H   LIG d   1      -5.976  92.759 120.140  0.00  0.00     0.149 HD
ENDBRANCH   6  13
BRANCH   5  18
ATOM     18  N   LIG d   1      -6.758  94.326 116.893  0.00  0.00     0.381 N 
ATOM     19  H   LIG d   1      -6.171  94.648 116.150  0.00  0.00    -0.090 HD
ATOM     20  H   LIG d   1      -6.567  94.880 117.709  0.00  0.00    -0.090 HD
ATOM     21  H   LIG d   1      -7.716  94.421 116.635  0.00  0.00    -0.090 HD
ENDBRANCH   5  18
BRANCH   3  22
ATOM     22  C   LIG d   1      -6.021  89.980 115.020  0.00  0.00     0.382 C 
ATOM     23  O   LIG d   1      -5.664  88.783 115.133  0.00  0.00    -0.241 OA
ATOM     24  O   LIG d   1      -6.600  90.352 113.981  0.00  0.00    -0.241 OA
ENDBRANCH   3  22
TORSDOF 7
ENDMDL
