MODEL 1
REMARK VINA RESULT:      -5.5      0.000      0.000
REMARK  7 active torsions:
REMARK  status: ('A' for Active; 'I' for Inactive)
REMARK    1  A    between atoms: C_2  and  C_3 
REMARK    2  A    between atoms: C_3  and  O_6 
REMARK    3  A    between atoms: C_3  and  C_4 
REMARK    4  A    between atoms: C_7  and  O_6 
REMARK    5  A    between atoms: C_9  and  C_10 
REMARK    6  A    between atoms: N_15  and  C_14 
REMARK    7  A    between atoms: N_20  and  C_19 
REMARK       I    between atoms: C_22  and  N_20 
ROOT
ATOM      1  C   LIG d   1      -6.777  77.600 117.462  0.00  0.00     0.161 C 
ATOM      2  C   LIG d   1      -6.033  77.148 116.359  0.00  0.00     0.016 C 
ATOM      3  C   LIG d   1      -6.476  76.128 115.487  0.00  0.00     0.038 C 
ATOM      4  C   LIG d   1      -7.769  75.592 115.570  0.00  0.00     0.028 C 
ATOM      5  C   LIG d   1      -8.364  75.658 116.973  0.00  0.00    -0.047 C 
ATOM      6  C   LIG d   1      -8.237  77.105 117.503  0.00  0.00     0.091 C 
ENDROOT
BRANCH   1   7
ATOM      7  O   LIG d   1      -6.734  79.039 117.524  0.00  0.00    -0.368 OA
BRANCH   7   8
ATOM      8  C   LIG d   1      -5.898  79.608 118.562  0.00  0.00     0.119 C 
BRANCH   8   9
ATOM      9  C   LIG d   1      -5.553  78.477 119.550  0.00  0.00     0.028 C 
ATOM     10  C   LIG d   1      -6.130  78.728 120.953  0.00  0.00     0.006 C 
ENDBRANCH   8   9
BRANCH   8  11
ATOM     11  C   LIG d   1      -6.664  80.648 119.386  0.00  0.00     0.028 C 
ATOM     12  C   LIG d   1      -7.670  81.451 118.546  0.00  0.00     0.006 C 
ENDBRANCH   8  11
ENDBRANCH   7   8
ENDBRANCH   1   7
BRANCH   6  13
ATOM     13  N   LIG d   1      -8.719  77.239 118.903  0.00  0.00    -0.311 N 
ATOM     14  C   LIG d   1      -9.678  78.087 119.270  0.00  0.00     0.210 C 
ATOM     15  C   LIG d   1     -10.009  78.080 120.765  0.00  0.00     0.109 C 
ATOM     16  O   LIG d   1     -10.309  78.820 118.494  0.00  0.00    -0.276 OA
ATOM     17  H   LIG d   1      -8.283  76.659 119.593  0.00  0.00     0.149 HD
ENDBRANCH   6  13
BRANCH   5  18
ATOM     18  N   LIG d   1      -9.761  75.194 116.887  0.00  0.00     0.381 N 
ATOM     19  H   LIG d   1      -9.987  74.973 115.938  0.00  0.00    -0.090 HD
ATOM     20  H   LIG d   1     -10.369  75.934 117.192  0.00  0.00    -0.090 HD
ATOM     21  H   LIG d   1      -9.889  74.390 117.462  0.00  0.00    -0.090 HD
ENDBRANCH   5  18
BRANCH   3  22
ATOM     22  C   LIG d   1      -5.606  75.606 114.542  0.00  0.00     0.382 C 
ATOM     23  O   LIG d   1      -5.626  76.038 113.364  0.00  0.00    -0.241 OA
ATOM     24  O   LIG d   1      -4.831  74.677 114.841  0.00  0.00    -0.241 OA
ENDBRANCH   3  22
TORSDOF 7
ENDMDL
MODEL 2
REMARK VINA RESULT:      -5.3     12.294     14.370
REMARK  7 active torsions:
REMARK  status: ('A' for Active; 'I' for Inactive)
REMARK    1  A    between atoms: C_2  and  C_3 
REMARK    2  A    between atoms: C_3  and  O_6 
REMARK    3  A    between atoms: C_3  and  C_4 
REMARK    4  A    between atoms: C_7  and  O_6 
REMARK    5  A    between atoms: C_9  and  C_10 
REMARK    6  A    between atoms: N_15  and  C_14 
REMARK    7  A    between atoms: N_20  and  C_19 
REMARK       I    between atoms: C_22  and  N_20 
ROOT
ATOM      1  C   LIG d   1      -4.220  90.782 117.577  0.00  0.00     0.161 C 
ATOM      2  C   LIG d   1      -4.607  90.119 116.401  0.00  0.00     0.016 C 
ATOM      3  C   LIG d   1      -5.630  90.586 115.545  0.00  0.00     0.038 C 
ATOM      4  C   LIG d   1      -6.237  91.838 115.730  0.00  0.00     0.028 C 
ATOM      5  C   LIG d   1      -6.233  92.304 117.182  0.00  0.00    -0.047 C 
ATOM      6  C   LIG d   1      -4.794  92.205 117.736  0.00  0.00     0.091 C 
ENDROOT
BRANCH   1   7
ATOM      7  O   LIG d   1      -2.782  90.808 117.672  0.00  0.00    -0.368 OA
BRANCH   7   8
ATOM      8  C   LIG d   1      -2.207  90.143 118.824  0.00  0.00     0.119 C 
BRANCH   8   9
ATOM      9  C   LIG d   1      -1.118  89.183 118.308  0.00  0.00     0.028 C 
ATOM     10  C   LIG d   1      -0.430  89.705 117.036  0.00  0.00     0.006 C 
ENDBRANCH   8   9
BRANCH   8  11
ATOM     11  C   LIG d   1      -3.237  89.250 119.523  0.00  0.00     0.028 C 
ATOM     12  C   LIG d   1      -2.758  87.798 119.679  0.00  0.00     0.006 C 
ENDBRANCH   8  11
ENDBRANCH   7   8
ENDBRANCH   1   7
BRANCH   6  13
ATOM     13  N   LIG d   1      -4.716  92.563 119.177  0.00  0.00    -0.311 N 
ATOM     14  C   LIG d   1      -3.872  93.473 119.661  0.00  0.00     0.210 C 
ATOM     15  C   LIG d   1      -3.941  93.675 121.178  0.00  0.00     0.109 C 
ATOM     16  O   LIG d   1      -3.097  94.155 118.974  0.00  0.00    -0.276 OA
ATOM     17  H   LIG d   1      -5.332  92.080 119.801  0.00  0.00     0.149 HD
ENDBRANCH   6  13
BRANCH   5  18
ATOM     18  N   LIG d   1      -6.770  93.678 117.210  0.00  0.00     0.381 N 
ATOM     19  H   LIG d   1      -7.724  93.662 117.512  0.00  0.00    -0.090 HD
ATOM     20  H   LIG d   1      -6.740  94.058 116.280  0.00  0.00    -0.090 HD
ATOM     21  H   LIG d   1      -6.228  94.243 117.826  0.00  0.00    -0.090 HD
ENDBRANCH   5  18
BRANCH   3  22
ATOM     22  C   LIG d   1      -6.085  89.780 114.512  0.00  0.00     0.382 C 
ATOM     23  O   LIG d   1      -5.422  88.772 114.166  0.00  0.00    -0.241 OA
ATOM     24  O   LIG d   1      -7.125  90.073 113.893  0.00  0.00    -0.241 OA
ENDBRANCH   3  22
TORSDOF 7
ENDMDL
MODEL 3
REMARK VINA RESULT:      -5.0     12.823     14.534
REMARK  7 active torsions:
REMARK  status: ('A' for Active; 'I' for Inactive)
REMARK    1  A    between atoms: C_2  and  C_3 
REMARK    2  A    between atoms: C_3  and  O_6 
REMARK    3  A    between atoms: C_3  and  C_4 
REMARK    4  A    between atoms: C_7  and  O_6 
REMARK    5  A    between atoms: C_9  and  C_10 
REMARK    6  A    between atoms: N_15  and  C_14 
REMARK    7  A    between atoms: N_20  and  C_19 
REMARK       I    between atoms: C_22  and  N_20 
ROOT
ATOM      1  C   LIG d   1      -5.239  91.704 117.908  0.00  0.00     0.161 C 
ATOM      2  C   LIG d   1      -5.992  91.743 116.723  0.00  0.00     0.016 C 
ATOM      3  C   LIG d   1      -5.816  90.829 115.658  0.00  0.00     0.038 C 
ATOM      4  C   LIG d   1      -4.973  89.714 115.770  0.00  0.00     0.028 C 
ATOM      5  C   LIG d   1      -3.822  89.920 116.749  0.00  0.00    -0.047 C 
ATOM      6  C   LIG d   1      -4.392  90.427 118.094  0.00  0.00     0.091 C 
ENDROOT
BRANCH   1   7
ATOM      7  O   LIG d   1      -6.104  91.901 119.043  0.00  0.00    -0.368 OA
BRANCH   7   8
ATOM      8  C   LIG d   1      -5.980  93.173 119.726  0.00  0.00     0.119 C 
BRANCH   8   9
ATOM      9  C   LIG d   1      -7.237  94.000 119.397  0.00  0.00     0.028 C 
ATOM     10  C   LIG d   1      -6.991  95.020 118.272  0.00  0.00     0.006 C 
ENDBRANCH   8   9
BRANCH   8  11
ATOM     11  C   LIG d   1      -4.804  93.987 119.178  0.00  0.00     0.028 C 
ATOM     12  C   LIG d   1      -3.700  94.216 120.222  0.00  0.00     0.006 C 
ENDBRANCH   8  11
ENDBRANCH   7   8
ENDBRANCH   1   7
BRANCH   6  13
ATOM     13  N   LIG d   1      -3.325  90.735 119.081  0.00  0.00    -0.311 N 
ATOM     14  C   LIG d   1      -2.876  89.854 119.974  0.00  0.00     0.210 C 
ATOM     15  C   LIG d   1      -1.786  90.383 120.912  0.00  0.00     0.109 C 
ATOM     16  O   LIG d   1      -3.253  88.675 120.056  0.00  0.00    -0.276 OA
ATOM     17  H   LIG d   1      -2.941  91.659 119.065  0.00  0.00     0.149 HD
ENDBRANCH   6  13
BRANCH   5  18
ATOM     18  N   LIG d   1      -3.106  88.637 116.872  0.00  0.00     0.381 N 
ATOM     19  H   LIG d   1      -3.285  88.233 117.770  0.00  0.00    -0.090 HD
ATOM     20  H   LIG d   1      -2.118  88.807 116.795  0.00  0.00    -0.090 HD
ATOM     21  H   LIG d   1      -3.400  88.012 116.154  0.00  0.00    -0.090 HD
ENDBRANCH   5  18
BRANCH   3  22
ATOM     22  C   LIG d   1      -6.459  91.050 114.450  0.00  0.00     0.382 C 
ATOM     23  O   LIG d   1      -6.385  92.173 113.896  0.00  0.00    -0.241 OA
ATOM     24  O   LIG d   1      -7.149  90.153 113.928  0.00  0.00    -0.241 OA
ENDBRANCH   3  22
TORSDOF 7
ENDMDL
MODEL 4
REMARK VINA RESULT:      -5.0      2.331      4.241
REMARK  7 active torsions:
REMARK  status: ('A' for Active; 'I' for Inactive)
REMARK    1  A    between atoms: C_2  and  C_3 
REMARK    2  A    between atoms: C_3  and  O_6 
REMARK    3  A    between atoms: C_3  and  C_4 
REMARK    4  A    between atoms: C_7  and  O_6 
REMARK    5  A    between atoms: C_9  and  C_10 
REMARK    6  A    between atoms: N_15  and  C_14 
REMARK    7  A    between atoms: N_20  and  C_19 
REMARK       I    between atoms: C_22  and  N_20 
ROOT
ATOM      1  C   LIG d   1      -6.180  77.789 117.270  0.00  0.00     0.161 C 
ATOM      2  C   LIG d   1      -5.973  76.878 116.221  0.00  0.00     0.016 C 
ATOM      3  C   LIG d   1      -4.692  76.526 115.737  0.00  0.00     0.038 C 
ATOM      4  C   LIG d   1      -3.516  76.949 116.375  0.00  0.00     0.028 C 
ATOM      5  C   LIG d   1      -3.674  78.269 117.122  0.00  0.00    -0.047 C 
ATOM      6  C   LIG d   1      -4.906  78.176 118.051  0.00  0.00     0.091 C 
ENDROOT
BRANCH   1   7
ATOM      7  O   LIG d   1      -7.183  77.278 118.170  0.00  0.00    -0.368 OA
BRANCH   7   8
ATOM      8  C   LIG d   1      -8.527  77.179 117.636  0.00  0.00     0.119 C 
BRANCH   8   9
ATOM      9  C   LIG d   1      -9.460  77.957 118.585  0.00  0.00     0.028 C 
ATOM     10  C   LIG d   1      -9.156  79.464 118.602  0.00  0.00     0.006 C 
ENDBRANCH   8   9
BRANCH   8  11
ATOM     11  C   LIG d   1      -9.033  75.734 117.664  0.00  0.00     0.028 C 
ATOM     12  C   LIG d   1      -9.243  75.149 116.259  0.00  0.00     0.006 C 
ENDBRANCH   8  11
ENDBRANCH   7   8
ENDBRANCH   1   7
BRANCH   6  13
ATOM     13  N   LIG d   1      -5.183  79.454 118.757  0.00  0.00    -0.311 N 
ATOM     14  C   LIG d   1      -5.381  79.538 120.071  0.00  0.00     0.210 C 
ATOM     15  C   LIG d   1      -5.670  80.949 120.593  0.00  0.00     0.109 C 
ATOM     16  O   LIG d   1      -5.313  78.582 120.859  0.00  0.00    -0.276 OA
ATOM     17  H   LIG d   1      -5.224  80.284 118.198  0.00  0.00     0.149 HD
ENDBRANCH   6  13
BRANCH   5  18
ATOM     18  N   LIG d   1      -2.418  78.522 117.852  0.00  0.00     0.381 N 
ATOM     19  H   LIG d   1      -2.535  78.291 118.818  0.00  0.00    -0.090 HD
ATOM     20  H   LIG d   1      -2.194  79.499 117.785  0.00  0.00    -0.090 HD
ATOM     21  H   LIG d   1      -1.681  77.977 117.460  0.00  0.00    -0.090 HD
ENDBRANCH   5  18
BRANCH   3  22
ATOM     22  C   LIG d   1      -4.578  75.773 114.578  0.00  0.00     0.382 C 
ATOM     23  O   LIG d   1      -5.268  76.064 113.571  0.00  0.00    -0.241 OA
ATOM     24  O   LIG d   1      -3.827  74.780 114.541  0.00  0.00    -0.241 OA
ENDBRANCH   3  22
TORSDOF 7
ENDMDL
MODEL 5
REMARK VINA RESULT:      -4.8      3.301      4.961
REMARK  7 active torsions:
REMARK  status: ('A' for Active; 'I' for Inactive)
REMARK    1  A    between atoms: C_2  and  C_3 
REMARK    2  A    between atoms: C_3  and  O_6 
REMARK    3  A    between atoms: C_3  and  C_4 
REMARK    4  A    between atoms: C_7  and  O_6 
REMARK    5  A    between atoms: C_9  and  C_10 
REMARK    6  A    between atoms: N_15  and  C_14 
REMARK    7  A    between atoms: N_20  and  C_19 
REMARK       I    between atoms: C_22  and  N_20 
ROOT
ATOM      1  C   LIG d   1      -4.736  77.905 116.967  0.00  0.00     0.161 C 
ATOM      2  C   LIG d   1      -5.467  77.066 116.110  0.00  0.00     0.016 C 
ATOM      3  C   LIG d   1      -4.899  75.966 115.426  0.00  0.00     0.038 C 
ATOM      4  C   LIG d   1      -3.586  75.538 115.674  0.00  0.00     0.028 C 
ATOM      5  C   LIG d   1      -2.663  76.655 116.149  0.00  0.00    -0.047 C 
ATOM      6  C   LIG d   1      -3.330  77.387 117.336  0.00  0.00     0.091 C 
ENDROOT
BRANCH   1   7
ATOM      7  O   LIG d   1      -5.501  78.170 118.160  0.00  0.00    -0.368 OA
BRANCH   7   8
ATOM      8  C   LIG d   1      -6.853  78.651 117.956  0.00  0.00     0.119 C 
BRANCH   8   9
ATOM      9  C   LIG d   1      -6.885  80.133 118.375  0.00  0.00     0.028 C 
ATOM     10  C   LIG d   1      -8.197  80.828 117.974  0.00  0.00     0.006 C 
ENDBRANCH   8   9
BRANCH   8  11
ATOM     11  C   LIG d   1      -7.841  77.944 118.889  0.00  0.00     0.028 C 
ATOM     12  C   LIG d   1      -8.695  76.892 118.164  0.00  0.00     0.006 C 
ENDBRANCH   8  11
ENDBRANCH   7   8
ENDBRANCH   1   7
BRANCH   6  13
ATOM     13  N   LIG d   1      -2.532  78.548 117.807  0.00  0.00    -0.311 N 
ATOM     14  C   LIG d   1      -1.653  78.477 118.805  0.00  0.00     0.210 C 
ATOM     15  C   LIG d   1      -0.952  79.796 119.144  0.00  0.00     0.109 C 
ATOM     16  O   LIG d   1      -1.364  77.440 119.421  0.00  0.00    -0.276 OA
ATOM     17  H   LIG d   1      -2.680  79.423 117.342  0.00  0.00     0.149 HD
ENDBRANCH   6  13
BRANCH   5  18
ATOM     18  N   LIG d   1      -1.368  76.044 116.500  0.00  0.00     0.381 N 
ATOM     19  H   LIG d   1      -0.672  76.757 116.595  0.00  0.00    -0.090 HD
ATOM     20  H   LIG d   1      -1.088  75.426 115.759  0.00  0.00    -0.090 HD
ATOM     21  H   LIG d   1      -1.451  75.536 117.353  0.00  0.00    -0.090 HD
ENDBRANCH   5  18
BRANCH   3  22
ATOM     22  C   LIG d   1      -5.634  75.307 114.454  0.00  0.00     0.382 C 
ATOM     23  O   LIG d   1      -5.866  75.868 113.355  0.00  0.00    -0.241 OA
ATOM     24  O   LIG d   1      -6.107  74.176 114.677  0.00  0.00    -0.241 OA
ENDBRANCH   3  22
TORSDOF 7
ENDMDL
MODEL 6
REMARK VINA RESULT:      -4.8      3.678      5.655
REMARK  7 active torsions:
REMARK  status: ('A' for Active; 'I' for Inactive)
REMARK    1  A    between atoms: C_2  and  C_3 
REMARK    2  A    between atoms: C_3  and  O_6 
REMARK    3  A    between atoms: C_3  and  C_4 
REMARK    4  A    between atoms: C_7  and  O_6 
REMARK    5  A    between atoms: C_9  and  C_10 
REMARK    6  A    between atoms: N_15  and  C_14 
REMARK    7  A    between atoms: N_20  and  C_19 
REMARK       I    between atoms: C_22  and  N_20 
ROOT
ATOM      1  C   LIG d   1      -4.363  77.848 117.394  0.00  0.00     0.161 C 
ATOM      2  C   LIG d   1      -3.446  78.595 118.152  0.00  0.00     0.016 C 
ATOM      3  C   LIG d   1      -2.051  78.581 117.922  0.00  0.00     0.038 C 
ATOM      4  C   LIG d   1      -1.489  77.930 116.814  0.00  0.00     0.028 C 
ATOM      5  C   LIG d   1      -2.320  76.751 116.318  0.00  0.00    -0.047 C 
ATOM      6  C   LIG d   1      -3.779  77.218 116.111  0.00  0.00     0.091 C 
ENDROOT
BRANCH   1   7
ATOM      7  O   LIG d   1      -5.511  78.659 117.076  0.00  0.00    -0.368 OA
BRANCH   7   8
ATOM      8  C   LIG d   1      -6.478  78.839 118.140  0.00  0.00     0.119 C 
BRANCH   8   9
ATOM      9  C   LIG d   1      -7.540  77.732 117.994  0.00  0.00     0.028 C 
ATOM     10  C   LIG d   1      -8.108  77.280 119.349  0.00  0.00     0.006 C 
ENDBRANCH   8   9
BRANCH   8  11
ATOM     11  C   LIG d   1      -7.241  80.157 117.982  0.00  0.00     0.028 C 
ATOM     12  C   LIG d   1      -7.172  81.040 119.238  0.00  0.00     0.006 C 
ENDBRANCH   8  11
ENDBRANCH   7   8
ENDBRANCH   1   7
BRANCH   6  13
ATOM     13  N   LIG d   1      -4.679  76.107 115.706  0.00  0.00    -0.311 N 
ATOM     14  C   LIG d   1      -4.974  75.827 114.438  0.00  0.00     0.210 C 
ATOM     15  C   LIG d   1      -5.937  74.652 114.242  0.00  0.00     0.109 C 
ATOM     16  O   LIG d   1      -4.504  76.420 113.455  0.00  0.00    -0.276 OA
ATOM     17  H   LIG d   1      -5.079  75.554 116.439  0.00  0.00     0.149 HD
ENDBRANCH   6  13
BRANCH   5  18
ATOM     18  N   LIG d   1      -1.692  76.252 115.080  0.00  0.00     0.381 N 
ATOM     19  H   LIG d   1      -2.355  76.275 114.331  0.00  0.00    -0.090 HD
ATOM     20  H   LIG d   1      -1.408  75.299 115.221  0.00  0.00    -0.090 HD
ATOM     21  H   LIG d   1      -0.900  76.812 114.850  0.00  0.00    -0.090 HD
ENDBRANCH   5  18
BRANCH   3  22
ATOM     22  C   LIG d   1      -1.199  79.190 118.830  0.00  0.00     0.382 C 
ATOM     23  O   LIG d   1      -0.246  79.895 118.420  0.00  0.00    -0.241 OA
ATOM     24  O   LIG d   1      -1.345  79.009 120.054  0.00  0.00    -0.241 OA
ENDBRANCH   3  22
TORSDOF 7
ENDMDL
MODEL 7
REMARK VINA RESULT:      -4.8      2.561      3.901
REMARK  7 active torsions:
REMARK  status: ('A' for Active; 'I' for Inactive)
REMARK    1  A    between atoms: C_2  and  C_3 
REMARK    2  A    between atoms: C_3  and  O_6 
REMARK    3  A    between atoms: C_3  and  C_4 
REMARK    4  A    between atoms: C_7  and  O_6 
REMARK    5  A    between atoms: C_9  and  C_10 
REMARK    6  A    between atoms: N_15  and  C_14 
REMARK    7  A    between atoms: N_20  and  C_19 
REMARK       I    between atoms: C_22  and  N_20 
ROOT
ATOM      1  C   LIG d   1      -6.990  77.976 117.876  0.00  0.00     0.161 C 
ATOM      2  C   LIG d   1      -7.527  76.824 117.277  0.00  0.00     0.016 C 
ATOM      3  C   LIG d   1      -8.872  76.418 117.440  0.00  0.00     0.038 C 
ATOM      4  C   LIG d   1      -9.816  77.224 118.093  0.00  0.00     0.028 C 
ATOM      5  C   LIG d   1      -9.203  78.147 119.141  0.00  0.00    -0.047 C 
ATOM      6  C   LIG d   1      -8.032  78.927 118.500  0.00  0.00     0.091 C 
ENDROOT
BRANCH   1   7
ATOM      7  O   LIG d   1      -6.172  78.685 116.923  0.00  0.00    -0.368 OA
BRANCH   7   8
ATOM      8  C   LIG d   1      -4.747  78.689 117.185  0.00  0.00     0.119 C 
BRANCH   8   9
ATOM      9  C   LIG d   1      -4.106  77.625 116.274  0.00  0.00     0.028 C 
ATOM     10  C   LIG d   1      -2.970  78.199 115.411  0.00  0.00     0.006 C 
ENDBRANCH   8   9
BRANCH   8  11
ATOM     11  C   LIG d   1      -4.442  78.236 118.616  0.00  0.00     0.028 C 
ATOM     12  C   LIG d   1      -3.642  79.278 119.413  0.00  0.00     0.006 C 
ENDBRANCH   8  11
ENDBRANCH   7   8
ENDBRANCH   1   7
BRANCH   6  13
ATOM     13  N   LIG d   1      -7.323  79.791 119.480  0.00  0.00    -0.311 N 
ATOM     14  C   LIG d   1      -7.146  81.100 119.309  0.00  0.00     0.210 C 
ATOM     15  C   LIG d   1      -6.370  81.798 120.430  0.00  0.00     0.109 C 
ATOM     16  O   LIG d   1      -7.585  81.754 118.352  0.00  0.00    -0.276 OA
ATOM     17  H   LIG d   1      -6.961  79.347 120.301  0.00  0.00     0.149 HD
ENDBRANCH   6  13
BRANCH   5  18
ATOM     18  N   LIG d   1     -10.276  79.025 119.644  0.00  0.00     0.381 N 
ATOM     19  H   LIG d   1     -10.112  79.966 119.345  0.00  0.00    -0.090 HD
ATOM     20  H   LIG d   1     -10.266  79.008 120.649  0.00  0.00    -0.090 HD
ATOM     21  H   LIG d   1     -11.160  78.711 119.308  0.00  0.00    -0.090 HD
ENDBRANCH   5  18
BRANCH   3  22
ATOM     22  C   LIG d   1      -9.275  75.174 116.979  0.00  0.00     0.382 C 
ATOM     23  O   LIG d   1      -8.890  74.134 117.566  0.00  0.00    -0.241 OA
ATOM     24  O   LIG d   1      -9.981  75.076 115.958  0.00  0.00    -0.241 OA
ENDBRANCH   3  22
TORSDOF 7
ENDMDL
MODEL 8
REMARK VINA RESULT:      -4.8      2.781      4.311
REMARK  7 active torsions:
REMARK  status: ('A' for Active; 'I' for Inactive)
REMARK    1  A    between atoms: C_2  and  C_3 
REMARK    2  A    between atoms: C_3  and  O_6 
REMARK    3  A    between atoms: C_3  and  C_4 
REMARK    4  A    between atoms: C_7  and  O_6 
REMARK    5  A    between atoms: C_9  and  C_10 
REMARK    6  A    between atoms: N_15  and  C_14 
REMARK    7  A    between atoms: N_20  and  C_19 
REMARK       I    between atoms: C_22  and  N_20 
ROOT
ATOM      1  C   LIG d   1      -5.725  78.043 117.419  0.00  0.00     0.161 C 
ATOM      2  C   LIG d   1      -6.093  77.140 116.407  0.00  0.00     0.016 C 
ATOM      3  C   LIG d   1      -5.163  76.348 115.695  0.00  0.00     0.038 C 
ATOM      4  C   LIG d   1      -3.808  76.295 116.052  0.00  0.00     0.028 C 
ATOM      5  C   LIG d   1      -3.310  77.565 116.733  0.00  0.00    -0.047 C 
ATOM      6  C   LIG d   1      -4.264  77.916 117.898  0.00  0.00     0.091 C 
ENDROOT
BRANCH   1   7
ATOM      7  O   LIG d   1      -6.630  77.922 118.534  0.00  0.00    -0.368 OA
BRANCH   7   8
ATOM      8  C   LIG d   1      -7.455  79.080 118.813  0.00  0.00     0.119 C 
BRANCH   8   9
ATOM      9  C   LIG d   1      -8.913  78.697 118.495  0.00  0.00     0.028 C 
ATOM     10  C   LIG d   1      -9.132  77.174 118.490  0.00  0.00     0.006 C 
ENDBRANCH   8   9
BRANCH   8  11
ATOM     11  C   LIG d   1      -7.126  80.240 117.868  0.00  0.00     0.028 C 
ATOM     12  C   LIG d   1      -8.222  81.317 117.842  0.00  0.00     0.006 C 
ENDBRANCH   8  11
ENDBRANCH   7   8
ENDBRANCH   1   7
BRANCH   6  13
ATOM     13  N   LIG d   1      -3.897  79.192 118.566  0.00  0.00    -0.311 N 
ATOM     14  C   LIG d   1      -3.109  79.259 119.637  0.00  0.00     0.210 C 
ATOM     15  C   LIG d   1      -2.874  80.672 120.180  0.00  0.00     0.109 C 
ATOM     16  O   LIG d   1      -2.556  78.285 120.170  0.00  0.00    -0.276 OA
ATOM     17  H   LIG d   1      -4.277  80.034 118.180  0.00  0.00     0.149 HD
ENDBRANCH   6  13
BRANCH   5  18
ATOM     18  N   LIG d   1      -1.924  77.321 117.174  0.00  0.00     0.381 N 
ATOM     19  H   LIG d   1      -1.787  77.703 118.089  0.00  0.00    -0.090 HD
ATOM     20  H   LIG d   1      -1.295  77.783 116.541  0.00  0.00    -0.090 HD
ATOM     21  H   LIG d   1      -1.737  76.342 117.184  0.00  0.00    -0.090 HD
ENDBRANCH   5  18
BRANCH   3  22
ATOM     22  C   LIG d   1      -5.581  75.629 114.585  0.00  0.00     0.382 C 
ATOM     23  O   LIG d   1      -6.061  74.479 114.728  0.00  0.00    -0.241 OA
ATOM     24  O   LIG d   1      -5.443  76.098 113.440  0.00  0.00    -0.241 OA
ENDBRANCH   3  22
TORSDOF 7
ENDMDL
MODEL 9
REMARK VINA RESULT:      -4.7     12.509     15.178
REMARK  7 active torsions:
REMARK  status: ('A' for Active; 'I' for Inactive)
REMARK    1  A    between atoms: C_2  and  C_3 
REMARK    2  A    between atoms: C_3  and  O_6 
REMARK    3  A    between atoms: C_3  and  C_4 
REMARK    4  A    between atoms: C_7  and  O_6 
REMARK    5  A    between atoms: C_9  and  C_10 
REMARK    6  A    between atoms: N_15  and  C_14 
REMARK    7  A    between atoms: N_20  and  C_19 
REMARK       I    between atoms: C_22  and  N_20 
ROOT
ATOM      1  C   LIG d   1      -3.889  91.902 117.238  0.00  0.00     0.161 C 
ATOM      2  C   LIG d   1      -3.080  92.572 118.170  0.00  0.00     0.016 C 
ATOM      3  C   LIG d   1      -3.597  93.339 119.239  0.00  0.00     0.038 C 
ATOM      4  C   LIG d   1      -4.968  93.364 119.539  0.00  0.00     0.028 C 
ATOM      5  C   LIG d   1      -5.857  93.113 118.326  0.00  0.00    -0.047 C 
ATOM      6  C   LIG d   1      -5.383  91.826 117.614  0.00  0.00     0.091 C 
ENDROOT
BRANCH   1   7
ATOM      7  O   LIG d   1      -3.365  90.580 116.997  0.00  0.00    -0.368 OA
BRANCH   7   8
ATOM      8  C   LIG d   1      -2.386  90.100 117.951  0.00  0.00     0.119 C 
BRANCH   8   9
ATOM      9  C   LIG d   1      -1.274  89.388 117.156  0.00  0.00     0.028 C 
ATOM     10  C   LIG d   1      -1.427  87.858 117.174  0.00  0.00     0.006 C 
ENDBRANCH   8   9
BRANCH   8  11
ATOM     11  C   LIG d   1      -2.981  89.025 118.866  0.00  0.00     0.028 C 
ATOM     12  C   LIG d   1      -3.405  89.577 120.237  0.00  0.00     0.006 C 
ENDBRANCH   8  11
ENDBRANCH   7   8
ENDBRANCH   1   7
BRANCH   6  13
ATOM     13  N   LIG d   1      -6.147  91.553 116.368  0.00  0.00    -0.311 N 
ATOM     14  C   LIG d   1      -6.627  90.352 116.051  0.00  0.00     0.210 C 
ATOM     15  C   LIG d   1      -7.367  90.285 114.712  0.00  0.00     0.109 C 
ATOM     16  O   LIG d   1      -6.537  89.343 116.766  0.00  0.00    -0.276 OA
ATOM     17  H   LIG d   1      -6.293  92.323 115.745  0.00  0.00     0.149 HD
ENDBRANCH   6  13
BRANCH   5  18
ATOM     18  N   LIG d   1      -7.250  93.029 118.805  0.00  0.00     0.381 N 
ATOM     19  H   LIG d   1      -7.264  92.711 119.754  0.00  0.00    -0.090 HD
ATOM     20  H   LIG d   1      -7.748  92.361 118.243  0.00  0.00    -0.090 HD
ATOM     21  H   LIG d   1      -7.688  93.921 118.740  0.00  0.00    -0.090 HD
ENDBRANCH   5  18
BRANCH   3  22
ATOM     22  C   LIG d   1      -2.743  94.125 119.998  0.00  0.00     0.382 C 
ATOM     23  O   LIG d   1      -3.211  95.008 120.757  0.00  0.00    -0.241 OA
ATOM     24  O   LIG d   1      -1.508  93.992 119.900  0.00  0.00    -0.241 OA
ENDBRANCH   3  22
TORSDOF 7
ENDMDL
