MODEL 1
REMARK VINA RESULT:      -5.6      0.000      0.000
REMARK  7 active torsions:
REMARK  status: ('A' for Active; 'I' for Inactive)
REMARK    1  A    between atoms: C_2  and  C_3 
REMARK    2  A    between atoms: C_3  and  O_6 
REMARK    3  A    between atoms: C_3  and  C_4 
REMARK    4  A    between atoms: C_7  and  O_6 
REMARK    5  A    between atoms: C_9  and  C_10 
REMARK    6  A    between atoms: N_15  and  C_14 
REMARK    7  A    between atoms: N_20  and  C_19 
REMARK       I    between atoms: C_22  and  N_20 
ROOT
ATOM      1  C   LIG d   1      -5.876  76.044 116.990  0.00  0.00     0.161 C 
ATOM      2  C   LIG d   1      -6.182  74.772 116.477  0.00  0.00     0.016 C 
ATOM      3  C   LIG d   1      -7.486  74.228 116.473  0.00  0.00     0.038 C 
ATOM      4  C   LIG d   1      -8.607  74.984 116.846  0.00  0.00     0.028 C 
ATOM      5  C   LIG d   1      -8.285  76.093 117.842  0.00  0.00    -0.047 C 
ATOM      6  C   LIG d   1      -7.103  76.928 117.298  0.00  0.00     0.091 C 
ENDROOT
BRANCH   1   7
ATOM      7  O   LIG d   1      -4.978  76.729 116.094  0.00  0.00    -0.368 OA
BRANCH   7   8
ATOM      8  C   LIG d   1      -3.754  76.029 115.761  0.00  0.00     0.119 C 
BRANCH   8   9
ATOM      9  C   LIG d   1      -2.768  76.240 116.927  0.00  0.00     0.028 C 
ATOM     10  C   LIG d   1      -2.303  74.913 117.550  0.00  0.00     0.006 C 
ENDBRANCH   8   9
BRANCH   8  11
ATOM     11  C   LIG d   1      -3.073  76.649 114.537  0.00  0.00     0.028 C 
ATOM     12  C   LIG d   1      -2.601  78.090 114.785  0.00  0.00     0.006 C 
ENDBRANCH   8  11
ENDBRANCH   7   8
ENDBRANCH   1   7
BRANCH   6  13
ATOM     13  N   LIG d   1      -6.669  77.983 118.251  0.00  0.00    -0.311 N 
ATOM     14  C   LIG d   1      -7.144  79.227 118.235  0.00  0.00     0.210 C 
ATOM     15  C   LIG d   1      -6.548  80.162 119.291  0.00  0.00     0.109 C 
ATOM     16  O   LIG d   1      -8.028  79.636 117.466  0.00  0.00    -0.276 OA
ATOM     17  H   LIG d   1      -5.977  77.729 118.929  0.00  0.00     0.149 HD
ENDBRANCH   6  13
BRANCH   5  18
ATOM     18  N   LIG d   1      -9.512  76.888 118.037  0.00  0.00     0.381 N 
ATOM     19  H   LIG d   1     -10.061  76.489 118.773  0.00  0.00    -0.090 HD
ATOM     20  H   LIG d   1     -10.054  76.862 117.191  0.00  0.00    -0.090 HD
ATOM     21  H   LIG d   1      -9.277  77.829 118.261  0.00  0.00    -0.090 HD
ENDBRANCH   5  18
BRANCH   3  22
ATOM     22  C   LIG d   1      -7.674  72.897 116.130  0.00  0.00     0.382 C 
ATOM     23  O   LIG d   1      -8.705  72.291 116.510  0.00  0.00    -0.241 OA
ATOM     24  O   LIG d   1      -6.806  72.283 115.482  0.00  0.00    -0.241 OA
ENDBRANCH   3  22
TORSDOF 7
ENDMDL
MODEL 2
REMARK VINA RESULT:      -5.5      2.534      4.204
REMARK  7 active torsions:
REMARK  status: ('A' for Active; 'I' for Inactive)
REMARK    1  A    between atoms: C_2  and  C_3 
REMARK    2  A    between atoms: C_3  and  O_6 
REMARK    3  A    between atoms: C_3  and  C_4 
REMARK    4  A    between atoms: C_7  and  O_6 
REMARK    5  A    between atoms: C_9  and  C_10 
REMARK    6  A    between atoms: N_15  and  C_14 
REMARK    7  A    between atoms: N_20  and  C_19 
REMARK       I    between atoms: C_22  and  N_20 
ROOT
ATOM      1  C   LIG d   1      -6.417  77.716 117.654  0.00  0.00     0.161 C 
ATOM      2  C   LIG d   1      -7.730  77.313 117.950  0.00  0.00     0.016 C 
ATOM      3  C   LIG d   1      -8.746  78.210 118.354  0.00  0.00     0.038 C 
ATOM      4  C   LIG d   1      -8.556  79.600 118.343  0.00  0.00     0.028 C 
ATOM      5  C   LIG d   1      -7.102  80.014 118.537  0.00  0.00    -0.047 C 
ATOM      6  C   LIG d   1      -6.221  79.241 117.528  0.00  0.00     0.091 C 
ENDROOT
BRANCH   1   7
ATOM      7  O   LIG d   1      -5.961  77.052 116.458  0.00  0.00    -0.368 OA
BRANCH   7   8
ATOM      8  C   LIG d   1      -5.535  75.677 116.616  0.00  0.00     0.119 C 
BRANCH   8   9
ATOM      9  C   LIG d   1      -4.012  75.634 116.383  0.00  0.00     0.028 C 
ATOM     10  C   LIG d   1      -3.213  75.818 117.684  0.00  0.00     0.006 C 
ENDBRANCH   8   9
BRANCH   8  11
ATOM     11  C   LIG d   1      -6.137  74.779 115.531  0.00  0.00     0.028 C 
ATOM     12  C   LIG d   1      -7.458  74.124 115.965  0.00  0.00     0.006 C 
ENDBRANCH   8  11
ENDBRANCH   7   8
ENDBRANCH   1   7
BRANCH   6  13
ATOM     13  N   LIG d   1      -4.773  79.525 117.706  0.00  0.00    -0.311 N 
ATOM     14  C   LIG d   1      -4.109  80.429 116.988  0.00  0.00     0.210 C 
ATOM     15  C   LIG d   1      -2.618  80.549 117.318  0.00  0.00     0.109 C 
ATOM     16  O   LIG d   1      -4.620  81.165 116.130  0.00  0.00    -0.276 OA
ATOM     17  H   LIG d   1      -4.287  78.995 118.403  0.00  0.00     0.149 HD
ENDBRANCH   6  13
BRANCH   5  18
ATOM     18  N   LIG d   1      -7.029  81.477 118.366  0.00  0.00     0.381 N 
ATOM     19  H   LIG d   1      -6.545  81.696 117.518  0.00  0.00    -0.090 HD
ATOM     20  H   LIG d   1      -6.512  81.869 119.134  0.00  0.00    -0.090 HD
ATOM     21  H   LIG d   1      -7.947  81.864 118.342  0.00  0.00    -0.090 HD
ENDBRANCH   5  18
BRANCH   3  22
ATOM     22  C   LIG d   1      -9.957  77.714 118.814  0.00  0.00     0.382 C 
ATOM     23  O   LIG d   1     -10.368  78.026 119.957  0.00  0.00    -0.241 OA
ATOM     24  O   LIG d   1     -10.621  76.923 118.117  0.00  0.00    -0.241 OA
ENDBRANCH   3  22
TORSDOF 7
ENDMDL
MODEL 3
REMARK VINA RESULT:      -5.5      1.895      4.820
REMARK  7 active torsions:
REMARK  status: ('A' for Active; 'I' for Inactive)
REMARK    1  A    between atoms: C_2  and  C_3 
REMARK    2  A    between atoms: C_3  and  O_6 
REMARK    3  A    between atoms: C_3  and  C_4 
REMARK    4  A    between atoms: C_7  and  O_6 
REMARK    5  A    between atoms: C_9  and  C_10 
REMARK    6  A    between atoms: N_15  and  C_14 
REMARK    7  A    between atoms: N_20  and  C_19 
REMARK       I    between atoms: C_22  and  N_20 
ROOT
ATOM      1  C   LIG d   1      -5.884  76.193 116.335  0.00  0.00     0.161 C 
ATOM      2  C   LIG d   1      -4.701  75.672 115.783  0.00  0.00     0.016 C 
ATOM      3  C   LIG d   1      -3.434  76.278 115.946  0.00  0.00     0.038 C 
ATOM      4  C   LIG d   1      -3.240  77.371 116.804  0.00  0.00     0.028 C 
ATOM      5  C   LIG d   1      -4.486  78.232 116.981  0.00  0.00    -0.047 C 
ATOM      6  C   LIG d   1      -5.674  77.321 117.366  0.00  0.00     0.091 C 
ENDROOT
BRANCH   1   7
ATOM      7  O   LIG d   1      -6.665  75.127 116.910  0.00  0.00    -0.368 OA
BRANCH   7   8
ATOM      8  C   LIG d   1      -7.910  74.815 116.239  0.00  0.00     0.119 C 
BRANCH   8   9
ATOM      9  C   LIG d   1      -9.058  75.309 117.142  0.00  0.00     0.028 C 
ATOM     10  C   LIG d   1      -8.762  75.098 118.636  0.00  0.00     0.006 C 
ENDBRANCH   8   9
BRANCH   8  11
ATOM     11  C   LIG d   1      -8.114  73.302 116.116  0.00  0.00     0.028 C 
ATOM     12  C   LIG d   1      -6.790  72.521 116.123  0.00  0.00     0.006 C 
ENDBRANCH   8  11
ENDBRANCH   7   8
ENDBRANCH   1   7
BRANCH   6  13
ATOM     13  N   LIG d   1      -6.952  78.073 117.475  0.00  0.00    -0.311 N 
ATOM     14  C   LIG d   1      -7.431  78.540 118.627  0.00  0.00     0.210 C 
ATOM     15  C   LIG d   1      -8.774  79.270 118.520  0.00  0.00     0.109 C 
ATOM     16  O   LIG d   1      -6.856  78.448 119.722  0.00  0.00    -0.276 OA
ATOM     17  H   LIG d   1      -7.468  78.221 116.630  0.00  0.00     0.149 HD
ENDBRANCH   6  13
BRANCH   5  18
ATOM     18  N   LIG d   1      -4.182  79.250 118.004  0.00  0.00     0.381 N 
ATOM     19  H   LIG d   1      -3.514  79.902 117.645  0.00  0.00    -0.090 HD
ATOM     20  H   LIG d   1      -3.781  78.796 118.806  0.00  0.00    -0.090 HD
ATOM     21  H   LIG d   1      -5.016  79.729 118.266  0.00  0.00    -0.090 HD
ENDBRANCH   5  18
BRANCH   3  22
ATOM     22  C   LIG d   1      -2.351  75.815 115.214  0.00  0.00     0.382 C 
ATOM     23  O   LIG d   1      -2.352  75.912 113.963  0.00  0.00    -0.241 OA
ATOM     24  O   LIG d   1      -1.394  75.260 115.786  0.00  0.00    -0.241 OA
ENDBRANCH   3  22
TORSDOF 7
ENDMDL
MODEL 4
REMARK VINA RESULT:      -5.2      1.967      4.674
REMARK  7 active torsions:
REMARK  status: ('A' for Active; 'I' for Inactive)
REMARK    1  A    between atoms: C_2  and  C_3 
REMARK    2  A    between atoms: C_3  and  O_6 
REMARK    3  A    between atoms: C_3  and  C_4 
REMARK    4  A    between atoms: C_7  and  O_6 
REMARK    5  A    between atoms: C_9  and  C_10 
REMARK    6  A    between atoms: N_15  and  C_14 
REMARK    7  A    between atoms: N_20  and  C_19 
REMARK       I    between atoms: C_22  and  N_20 
ROOT
ATOM      1  C   LIG d   1      -6.121  75.997 117.348  0.00  0.00     0.161 C 
ATOM      2  C   LIG d   1      -5.464  75.578 116.180  0.00  0.00     0.016 C 
ATOM      3  C   LIG d   1      -4.288  76.190 115.687  0.00  0.00     0.038 C 
ATOM      4  C   LIG d   1      -3.601  77.172 116.416  0.00  0.00     0.028 C 
ATOM      5  C   LIG d   1      -4.502  77.974 117.349  0.00  0.00    -0.047 C 
ATOM      6  C   LIG d   1      -5.325  76.994 118.216  0.00  0.00     0.091 C 
ENDROOT
BRANCH   1   7
ATOM      7  O   LIG d   1      -6.507  74.849 118.130  0.00  0.00    -0.368 OA
BRANCH   7   8
ATOM      8  C   LIG d   1      -7.924  74.546 118.160  0.00  0.00     0.119 C 
BRANCH   8   9
ATOM      9  C   LIG d   1      -8.098  73.099 117.662  0.00  0.00     0.028 C 
ATOM     10  C   LIG d   1      -8.398  73.029 116.155  0.00  0.00     0.006 C 
ENDBRANCH   8   9
BRANCH   8  11
ATOM     11  C   LIG d   1      -8.701  75.414 117.166  0.00  0.00     0.028 C 
ATOM     12  C   LIG d   1      -9.860  76.180 117.823  0.00  0.00     0.006 C 
ENDBRANCH   8  11
ENDBRANCH   7   8
ENDBRANCH   1   7
BRANCH   6  13
ATOM     13  N   LIG d   1      -6.294  77.695 119.099  0.00  0.00    -0.311 N 
ATOM     14  C   LIG d   1      -7.184  78.580 118.653  0.00  0.00     0.210 C 
ATOM     15  C   LIG d   1      -8.075  79.201 119.734  0.00  0.00     0.109 C 
ATOM     16  O   LIG d   1      -7.342  78.886 117.462  0.00  0.00    -0.276 OA
ATOM     17  H   LIG d   1      -6.256  77.483 120.077  0.00  0.00     0.149 HD
ENDBRANCH   6  13
BRANCH   5  18
ATOM     18  N   LIG d   1      -3.637  78.865 118.146  0.00  0.00     0.381 N 
ATOM     19  H   LIG d   1      -2.683  78.743 117.873  0.00  0.00    -0.090 HD
ATOM     20  H   LIG d   1      -3.722  78.618 119.116  0.00  0.00    -0.090 HD
ATOM     21  H   LIG d   1      -3.910  79.814 118.012  0.00  0.00    -0.090 HD
ENDBRANCH   5  18
BRANCH   3  22
ATOM     22  C   LIG d   1      -3.810  75.847 114.431  0.00  0.00     0.382 C 
ATOM     23  O   LIG d   1      -2.575  75.837 114.212  0.00  0.00    -0.241 OA
ATOM     24  O   LIG d   1      -4.600  75.591 113.503  0.00  0.00    -0.241 OA
ENDBRANCH   3  22
TORSDOF 7
ENDMDL
MODEL 5
REMARK VINA RESULT:      -5.1      1.751      4.876
REMARK  7 active torsions:
REMARK  status: ('A' for Active; 'I' for Inactive)
REMARK    1  A    between atoms: C_2  and  C_3 
REMARK    2  A    between atoms: C_3  and  O_6 
REMARK    3  A    between atoms: C_3  and  C_4 
REMARK    4  A    between atoms: C_7  and  O_6 
REMARK    5  A    between atoms: C_9  and  C_10 
REMARK    6  A    between atoms: N_15  and  C_14 
REMARK    7  A    between atoms: N_20  and  C_19 
REMARK       I    between atoms: C_22  and  N_20 
ROOT
ATOM      1  C   LIG d   1      -6.253  76.639 117.240  0.00  0.00     0.161 C 
ATOM      2  C   LIG d   1      -6.243  78.019 117.502  0.00  0.00     0.016 C 
ATOM      3  C   LIG d   1      -7.375  78.731 117.963  0.00  0.00     0.038 C 
ATOM      4  C   LIG d   1      -8.558  78.079 118.339  0.00  0.00     0.028 C 
ATOM      5  C   LIG d   1      -8.778  76.755 117.614  0.00  0.00    -0.047 C 
ATOM      6  C   LIG d   1      -7.503  75.892 117.750  0.00  0.00     0.091 C 
ENDROOT
BRANCH   1   7
ATOM      7  O   LIG d   1      -5.056  76.033 117.768  0.00  0.00    -0.368 OA
BRANCH   7   8
ATOM      8  C   LIG d   1      -3.868  76.147 116.948  0.00  0.00     0.119 C 
BRANCH   8   9
ATOM      9  C   LIG d   1      -4.260  75.761 115.509  0.00  0.00     0.028 C 
ATOM     10  C   LIG d   1      -3.225  76.231 114.473  0.00  0.00     0.006 C 
ENDBRANCH   8   9
BRANCH   8  11
ATOM     11  C   LIG d   1      -2.802  75.129 117.365  0.00  0.00     0.028 C 
ATOM     12  C   LIG d   1      -1.553  75.788 117.971  0.00  0.00     0.006 C 
ENDBRANCH   8  11
ENDBRANCH   7   8
ENDBRANCH   1   7
BRANCH   6  13
ATOM     13  N   LIG d   1      -7.601  74.614 116.998  0.00  0.00    -0.311 N 
ATOM     14  C   LIG d   1      -7.892  73.447 117.570  0.00  0.00     0.210 C 
ATOM     15  C   LIG d   1      -7.923  72.249 116.616  0.00  0.00     0.109 C 
ATOM     16  O   LIG d   1      -8.159  73.296 118.772  0.00  0.00    -0.276 OA
ATOM     17  H   LIG d   1      -7.430  74.650 116.012  0.00  0.00     0.149 HD
ENDBRANCH   6  13
BRANCH   5  18
ATOM     18  N   LIG d   1      -9.972  76.119 118.200  0.00  0.00     0.381 N 
ATOM     19  H   LIG d   1      -9.812  75.138 118.314  0.00  0.00    -0.090 HD
ATOM     20  H   LIG d   1     -10.747  76.240 117.571  0.00  0.00    -0.090 HD
ATOM     21  H   LIG d   1     -10.182  76.533 119.081  0.00  0.00    -0.090 HD
ENDBRANCH   5  18
BRANCH   3  22
ATOM     22  C   LIG d   1      -7.341  80.116 118.013  0.00  0.00     0.382 C 
ATOM     23  O   LIG d   1      -6.788  80.764 117.092  0.00  0.00    -0.241 OA
ATOM     24  O   LIG d   1      -7.818  80.724 118.990  0.00  0.00    -0.241 OA
ENDBRANCH   3  22
TORSDOF 7
ENDMDL
MODEL 6
REMARK VINA RESULT:      -4.9     14.948     18.003
REMARK  7 active torsions:
REMARK  status: ('A' for Active; 'I' for Inactive)
REMARK    1  A    between atoms: C_2  and  C_3 
REMARK    2  A    between atoms: C_3  and  O_6 
REMARK    3  A    between atoms: C_3  and  C_4 
REMARK    4  A    between atoms: C_7  and  O_6 
REMARK    5  A    between atoms: C_9  and  C_10 
REMARK    6  A    between atoms: N_15  and  C_14 
REMARK    7  A    between atoms: N_20  and  C_19 
REMARK       I    between atoms: C_22  and  N_20 
ROOT
ATOM      1  C   LIG d   1      10.788  78.733 114.549  0.00  0.00     0.161 C 
ATOM      2  C   LIG d   1       9.447  78.947 114.907  0.00  0.00     0.016 C 
ATOM      3  C   LIG d   1       8.589  77.919 115.359  0.00  0.00     0.038 C 
ATOM      4  C   LIG d   1       9.060  76.626 115.631  0.00  0.00     0.028 C 
ATOM      5  C   LIG d   1      10.284  76.242 114.806  0.00  0.00    -0.047 C 
ATOM      6  C   LIG d   1      11.351  77.352 114.944  0.00  0.00     0.091 C 
ENDROOT
BRANCH   1   7
ATOM      7  O   LIG d   1      11.612  79.784 115.092  0.00  0.00    -0.368 OA
BRANCH   7   8
ATOM      8  C   LIG d   1      12.170  80.717 114.134  0.00  0.00     0.119 C 
BRANCH   8   9
ATOM      9  C   LIG d   1      13.621  81.008 114.563  0.00  0.00     0.028 C 
ATOM     10  C   LIG d   1      14.582  81.091 113.365  0.00  0.00     0.006 C 
ENDBRANCH   8   9
BRANCH   8  11
ATOM     11  C   LIG d   1      11.451  82.068 114.189  0.00  0.00     0.028 C 
ATOM     12  C   LIG d   1      10.429  82.246 113.055  0.00  0.00     0.006 C 
ENDBRANCH   8  11
ENDBRANCH   7   8
ENDBRANCH   1   7
BRANCH   6  13
ATOM     13  N   LIG d   1      12.548  77.096 114.102  0.00  0.00    -0.311 N 
ATOM     14  C   LIG d   1      13.797  77.251 114.536  0.00  0.00     0.210 C 
ATOM     15  C   LIG d   1      14.885  76.953 113.499  0.00  0.00     0.109 C 
ATOM     16  O   LIG d   1      14.109  77.577 115.692  0.00  0.00    -0.276 OA
ATOM     17  H   LIG d   1      12.387  76.798 113.159  0.00  0.00     0.149 HD
ENDBRANCH   6  13
BRANCH   5  18
ATOM     18  N   LIG d   1      10.751  74.928 115.287  0.00  0.00     0.381 N 
ATOM     19  H   LIG d   1      10.793  74.283 114.524  0.00  0.00    -0.090 HD
ATOM     20  H   LIG d   1      10.095  74.576 115.962  0.00  0.00    -0.090 HD
ATOM     21  H   LIG d   1      11.651  75.018 115.705  0.00  0.00    -0.090 HD
ENDBRANCH   5  18
BRANCH   3  22
ATOM     22  C   LIG d   1       7.233  78.170 115.507  0.00  0.00     0.382 C 
ATOM     23  O   LIG d   1       6.834  78.942 116.412  0.00  0.00    -0.241 OA
ATOM     24  O   LIG d   1       6.402  77.601 114.775  0.00  0.00    -0.241 OA
ENDBRANCH   3  22
TORSDOF 7
ENDMDL
MODEL 7
REMARK VINA RESULT:      -4.8      2.295      5.062
REMARK  7 active torsions:
REMARK  status: ('A' for Active; 'I' for Inactive)
REMARK    1  A    between atoms: C_2  and  C_3 
REMARK    2  A    between atoms: C_3  and  O_6 
REMARK    3  A    between atoms: C_3  and  C_4 
REMARK    4  A    between atoms: C_7  and  O_6 
REMARK    5  A    between atoms: C_9  and  C_10 
REMARK    6  A    between atoms: N_15  and  C_14 
REMARK    7  A    between atoms: N_20  and  C_19 
REMARK       I    between atoms: C_22  and  N_20 
ROOT
ATOM      1  C   LIG d   1      -6.233  77.207 117.182  0.00  0.00     0.161 C 
ATOM      2  C   LIG d   1      -5.016  77.252 116.484  0.00  0.00     0.016 C 
ATOM      3  C   LIG d   1      -4.180  78.392 116.449  0.00  0.00     0.038 C 
ATOM      4  C   LIG d   1      -4.434  79.522 117.240  0.00  0.00     0.028 C 
ATOM      5  C   LIG d   1      -5.911  79.712 117.567  0.00  0.00    -0.047 C 
ATOM      6  C   LIG d   1      -6.472  78.392 118.142  0.00  0.00     0.091 C 
ENDROOT
BRANCH   1   7
ATOM      7  O   LIG d   1      -6.344  75.958 117.892  0.00  0.00    -0.368 OA
BRANCH   7   8
ATOM      8  C   LIG d   1      -7.318  75.016 117.378  0.00  0.00     0.119 C 
BRANCH   8   9
ATOM      9  C   LIG d   1      -8.032  74.382 118.588  0.00  0.00     0.028 C 
ATOM     10  C   LIG d   1      -7.912  75.242 119.857  0.00  0.00     0.006 C 
ENDBRANCH   8   9
BRANCH   8  11
ATOM     11  C   LIG d   1      -6.639  73.852 116.651  0.00  0.00     0.028 C 
ATOM     12  C   LIG d   1      -7.640  72.810 116.129  0.00  0.00     0.006 C 
ENDBRANCH   8  11
ENDBRANCH   7   8
ENDBRANCH   1   7
BRANCH   6  13
ATOM     13  N   LIG d   1      -7.932  78.466 118.410  0.00  0.00    -0.311 N 
ATOM     14  C   LIG d   1      -8.444  78.842 119.581  0.00  0.00     0.210 C 
ATOM     15  C   LIG d   1      -9.975  78.829 119.651  0.00  0.00     0.109 C 
ATOM     16  O   LIG d   1      -7.777  79.215 120.557  0.00  0.00    -0.276 OA
ATOM     17  H   LIG d   1      -8.547  78.210 117.662  0.00  0.00     0.149 HD
ENDBRANCH   6  13
BRANCH   5  18
ATOM     18  N   LIG d   1      -6.017  80.843 118.508  0.00  0.00     0.381 N 
ATOM     19  H   LIG d   1      -5.303  80.772 119.206  0.00  0.00    -0.090 HD
ATOM     20  H   LIG d   1      -6.910  80.803 118.967  0.00  0.00    -0.090 HD
ATOM     21  H   LIG d   1      -5.926  81.705 118.017  0.00  0.00    -0.090 HD
ENDBRANCH   5  18
BRANCH   3  22
ATOM     22  C   LIG d   1      -3.096  78.423 115.584  0.00  0.00     0.382 C 
ATOM     23  O   LIG d   1      -3.243  78.839 114.410  0.00  0.00    -0.241 OA
ATOM     24  O   LIG d   1      -1.983  78.000 115.951  0.00  0.00    -0.241 OA
ENDBRANCH   3  22
TORSDOF 7
ENDMDL
MODEL 8
REMARK VINA RESULT:      -4.7      2.420      5.161
REMARK  7 active torsions:
REMARK  status: ('A' for Active; 'I' for Inactive)
REMARK    1  A    between atoms: C_2  and  C_3 
REMARK    2  A    between atoms: C_3  and  O_6 
REMARK    3  A    between atoms: C_3  and  C_4 
REMARK    4  A    between atoms: C_7  and  O_6 
REMARK    5  A    between atoms: C_9  and  C_10 
REMARK    6  A    between atoms: N_15  and  C_14 
REMARK    7  A    between atoms: N_20  and  C_19 
REMARK       I    between atoms: C_22  and  N_20 
ROOT
ATOM      1  C   LIG d   1      -6.165  77.730 117.383  0.00  0.00     0.161 C 
ATOM      2  C   LIG d   1      -5.069  78.553 117.075  0.00  0.00     0.016 C 
ATOM      3  C   LIG d   1      -5.034  79.939 117.355  0.00  0.00     0.038 C 
ATOM      4  C   LIG d   1      -6.039  80.569 118.104  0.00  0.00     0.028 C 
ATOM      5  C   LIG d   1      -7.397  79.883 117.995  0.00  0.00    -0.047 C 
ATOM      6  C   LIG d   1      -7.224  78.377 118.299  0.00  0.00     0.091 C 
ENDROOT
BRANCH   1   7
ATOM      7  O   LIG d   1      -5.700  76.490 117.953  0.00  0.00    -0.368 OA
BRANCH   7   8
ATOM      8  C   LIG d   1      -5.688  75.345 117.065  0.00  0.00     0.119 C 
BRANCH   8   9
ATOM      9  C   LIG d   1      -4.328  75.334 116.340  0.00  0.00     0.028 C 
ATOM     10  C   LIG d   1      -3.142  75.311 117.319  0.00  0.00     0.006 C 
ENDBRANCH   8   9
BRANCH   8  11
ATOM     11  C   LIG d   1      -6.737  75.488 115.958  0.00  0.00     0.028 C 
ATOM     12  C   LIG d   1      -7.989  74.633 116.209  0.00  0.00     0.006 C 
ENDBRANCH   8  11
ENDBRANCH   7   8
ENDBRANCH   1   7
BRANCH   6  13
ATOM     13  N   LIG d   1      -8.489  77.616 118.133  0.00  0.00    -0.311 N 
ATOM     14  C   LIG d   1      -9.303  77.317 119.143  0.00  0.00     0.210 C 
ATOM     15  C   LIG d   1     -10.545  76.508 118.756  0.00  0.00     0.109 C 
ATOM     16  O   LIG d   1      -9.131  77.672 120.319  0.00  0.00    -0.276 OA
ATOM     17  H   LIG d   1      -8.722  77.316 117.206  0.00  0.00     0.149 HD
ENDBRANCH   6  13
BRANCH   5  18
ATOM     18  N   LIG d   1      -8.315  80.560 118.930  0.00  0.00     0.381 N 
ATOM     19  H   LIG d   1      -7.792  81.131 119.564  0.00  0.00    -0.090 HD
ATOM     20  H   LIG d   1      -8.806  79.865 119.464  0.00  0.00    -0.090 HD
ATOM     21  H   LIG d   1      -8.964  81.121 118.424  0.00  0.00    -0.090 HD
ENDBRANCH   5  18
BRANCH   3  22
ATOM     22  C   LIG d   1      -4.004  80.716 116.849  0.00  0.00     0.382 C 
ATOM     23  O   LIG d   1      -2.980  80.928 117.542  0.00  0.00    -0.241 OA
ATOM     24  O   LIG d   1      -4.105  81.245 115.726  0.00  0.00    -0.241 OA
ENDBRANCH   3  22
TORSDOF 7
ENDMDL
MODEL 9
REMARK VINA RESULT:      -4.6      2.463      4.563
REMARK  7 active torsions:
REMARK  status: ('A' for Active; 'I' for Inactive)
REMARK    1  A    between atoms: C_2  and  C_3 
REMARK    2  A    between atoms: C_3  and  O_6 
REMARK    3  A    between atoms: C_3  and  C_4 
REMARK    4  A    between atoms: C_7  and  O_6 
REMARK    5  A    between atoms: C_9  and  C_10 
REMARK    6  A    between atoms: N_15  and  C_14 
REMARK    7  A    between atoms: N_20  and  C_19 
REMARK       I    between atoms: C_22  and  N_20 
ROOT
ATOM      1  C   LIG d   1      -6.669  77.208 117.383  0.00  0.00     0.161 C 
ATOM      2  C   LIG d   1      -7.882  77.167 118.090  0.00  0.00     0.016 C 
ATOM      3  C   LIG d   1      -8.713  76.024 118.144  0.00  0.00     0.038 C 
ATOM      4  C   LIG d   1      -8.310  74.789 117.616  0.00  0.00     0.028 C 
ATOM      5  C   LIG d   1      -7.323  74.917 116.460  0.00  0.00    -0.047 C 
ATOM      6  C   LIG d   1      -6.159  75.836 116.894  0.00  0.00     0.091 C 
ENDROOT
BRANCH   1   7
ATOM      7  O   LIG d   1      -5.662  77.862 118.180  0.00  0.00    -0.368 OA
BRANCH   7   8
ATOM      8  C   LIG d   1      -5.371  79.239 117.836  0.00  0.00     0.119 C 
BRANCH   8   9
ATOM      9  C   LIG d   1      -3.879  79.316 117.455  0.00  0.00     0.028 C 
ATOM     10  C   LIG d   1      -3.599  80.395 116.396  0.00  0.00     0.006 C 
ENDBRANCH   8   9
BRANCH   8  11
ATOM     11  C   LIG d   1      -5.528  80.162 119.047  0.00  0.00     0.028 C 
ATOM     12  C   LIG d   1      -6.680  81.166 118.886  0.00  0.00     0.006 C 
ENDBRANCH   8  11
ENDBRANCH   7   8
ENDBRANCH   1   7
BRANCH   6  13
ATOM     13  N   LIG d   1      -5.191  76.082 115.794  0.00  0.00    -0.311 N 
ATOM     14  C   LIG d   1      -3.878  75.890 115.915  0.00  0.00     0.210 C 
ATOM     15  C   LIG d   1      -3.058  76.224 114.665  0.00  0.00     0.109 C 
ATOM     16  O   LIG d   1      -3.320  75.445 116.929  0.00  0.00    -0.276 OA
ATOM     17  H   LIG d   1      -5.562  76.416 114.926  0.00  0.00     0.149 HD
ENDBRANCH   6  13
BRANCH   5  18
ATOM     18  N   LIG d   1      -6.882  73.556 116.098  0.00  0.00     0.381 N 
ATOM     19  H   LIG d   1      -6.224  73.223 116.774  0.00  0.00    -0.090 HD
ATOM     20  H   LIG d   1      -6.426  73.590 115.204  0.00  0.00    -0.090 HD
ATOM     21  H   LIG d   1      -7.666  72.943 116.057  0.00  0.00    -0.090 HD
ENDBRANCH   5  18
BRANCH   3  22
ATOM     22  C   LIG d   1      -9.981  76.122 118.697  0.00  0.00     0.382 C 
ATOM     23  O   LIG d   1     -10.167  75.809 119.897  0.00  0.00    -0.241 OA
ATOM     24  O   LIG d   1     -10.949  76.477 117.998  0.00  0.00    -0.241 OA
ENDBRANCH   3  22
TORSDOF 7
ENDMDL
