MODEL 1
REMARK VINA RESULT:      -5.4      0.000      0.000
REMARK  7 active torsions:
REMARK  status: ('A' for Active; 'I' for Inactive)
REMARK    1  A    between atoms: C_2  and  C_3 
REMARK    2  A    between atoms: C_3  and  O_6 
REMARK    3  A    between atoms: C_3  and  C_4 
REMARK    4  A    between atoms: C_7  and  O_6 
REMARK    5  A    between atoms: C_9  and  C_10 
REMARK    6  A    between atoms: N_15  and  C_14 
REMARK    7  A    between atoms: N_20  and  C_19 
REMARK       I    between atoms: C_22  and  N_20 
ROOT
ATOM      1  C   LIG d   1       0.431  58.017 116.559  0.00  0.00     0.161 C 
ATOM      2  C   LIG d   1      -0.347  59.155 116.829  0.00  0.00     0.016 C 
ATOM      3  C   LIG d   1      -1.706  59.095 117.213  0.00  0.00     0.038 C 
ATOM      4  C   LIG d   1      -2.342  57.879 117.501  0.00  0.00     0.028 C 
ATOM      5  C   LIG d   1      -1.744  56.691 116.754  0.00  0.00    -0.047 C 
ATOM      6  C   LIG d   1      -0.214  56.679 116.975  0.00  0.00     0.091 C 
ENDROOT
BRANCH   1   7
ATOM      7  O   LIG d   1       1.730  58.158 117.167  0.00  0.00    -0.368 OA
BRANCH   7   8
ATOM      8  C   LIG d   1       1.857  59.199 118.166  0.00  0.00     0.119 C 
BRANCH   8   9
ATOM      9  C   LIG d   1       3.171  59.954 117.884  0.00  0.00     0.028 C 
ATOM     10  C   LIG d   1       4.337  59.003 117.564  0.00  0.00     0.006 C 
ENDBRANCH   8   9
BRANCH   8  11
ATOM     11  C   LIG d   1       2.022  58.609 119.569  0.00  0.00     0.028 C 
ATOM     12  C   LIG d   1       0.683  58.431 120.302  0.00  0.00     0.006 C 
ENDBRANCH   8  11
ENDBRANCH   7   8
ENDBRANCH   1   7
BRANCH   6  13
ATOM     13  N   LIG d   1       0.460  55.598 116.210  0.00  0.00    -0.311 N 
ATOM     14  C   LIG d   1       0.772  54.414 116.735  0.00  0.00     0.210 C 
ATOM     15  C   LIG d   1       1.482  53.450 115.779  0.00  0.00     0.109 C 
ATOM     16  O   LIG d   1       0.499  54.058 117.891  0.00  0.00    -0.276 OA
ATOM     17  H   LIG d   1       0.690  55.790 115.255  0.00  0.00     0.149 HD
ENDBRANCH   6  13
BRANCH   5  18
ATOM     18  N   LIG d   1      -2.409  55.472 117.251  0.00  0.00     0.381 N 
ATOM     19  H   LIG d   1      -1.735  54.868 117.678  0.00  0.00    -0.090 HD
ATOM     20  H   LIG d   1      -2.820  54.986 116.473  0.00  0.00    -0.090 HD
ATOM     21  H   LIG d   1      -3.115  55.713 117.911  0.00  0.00    -0.090 HD
ENDBRANCH   5  18
BRANCH   3  22
ATOM     22  C   LIG d   1      -2.455  60.261 117.274  0.00  0.00     0.382 C 
ATOM     23  O   LIG d   1      -1.970  61.291 117.800  0.00  0.00    -0.241 OA
ATOM     24  O   LIG d   1      -3.626  60.282 116.850  0.00  0.00    -0.241 OA
ENDBRANCH   3  22
TORSDOF 7
ENDMDL
MODEL 2
REMARK VINA RESULT:      -4.9     15.669     18.858
REMARK  7 active torsions:
REMARK  status: ('A' for Active; 'I' for Inactive)
REMARK    1  A    between atoms: C_2  and  C_3 
REMARK    2  A    between atoms: C_3  and  O_6 
REMARK    3  A    between atoms: C_3  and  C_4 
REMARK    4  A    between atoms: C_7  and  O_6 
REMARK    5  A    between atoms: C_9  and  C_10 
REMARK    6  A    between atoms: N_15  and  C_14 
REMARK    7  A    between atoms: N_20  and  C_19 
REMARK       I    between atoms: C_22  and  N_20 
ROOT
ATOM      1  C   LIG d   1     -16.571  64.318 115.188  0.00  0.00     0.161 C 
ATOM      2  C   LIG d   1     -17.758  64.632 114.505  0.00  0.00     0.016 C 
ATOM      3  C   LIG d   1     -19.040  64.555 115.096  0.00  0.00     0.038 C 
ATOM      4  C   LIG d   1     -19.211  64.302 116.465  0.00  0.00     0.028 C 
ATOM      5  C   LIG d   1     -18.078  63.484 117.076  0.00  0.00    -0.047 C 
ATOM      6  C   LIG d   1     -16.729  64.147 116.713  0.00  0.00     0.091 C 
ENDROOT
BRANCH   1   7
ATOM      7  O   LIG d   1     -15.563  65.306 114.896  0.00  0.00    -0.368 OA
BRANCH   7   8
ATOM      8  C   LIG d   1     -16.044  66.641 114.606  0.00  0.00     0.119 C 
BRANCH   8   9
ATOM      9  C   LIG d   1     -15.380  67.097 113.292  0.00  0.00     0.028 C 
ATOM     10  C   LIG d   1     -14.684  68.461 113.428  0.00  0.00     0.006 C 
ENDBRANCH   8   9
BRANCH   8  11
ATOM     11  C   LIG d   1     -15.578  67.644 115.665  0.00  0.00     0.028 C 
ATOM     12  C   LIG d   1     -16.682  68.006 116.670  0.00  0.00     0.006 C 
ENDBRANCH   8  11
ENDBRANCH   7   8
ENDBRANCH   1   7
BRANCH   6  13
ATOM     13  N   LIG d   1     -15.564  63.364 117.201  0.00  0.00    -0.311 N 
ATOM     14  C   LIG d   1     -14.988  63.567 118.385  0.00  0.00     0.210 C 
ATOM     15  C   LIG d   1     -13.787  62.664 118.683  0.00  0.00     0.109 C 
ATOM     16  O   LIG d   1     -15.377  64.388 119.229  0.00  0.00    -0.276 OA
ATOM     17  H   LIG d   1     -15.203  62.656 116.592  0.00  0.00     0.149 HD
ENDBRANCH   6  13
BRANCH   5  18
ATOM     18  N   LIG d   1     -18.314  63.413 118.530  0.00  0.00     0.381 N 
ATOM     19  H   LIG d   1     -17.474  63.645 119.022  0.00  0.00    -0.090 HD
ATOM     20  H   LIG d   1     -18.571  62.472 118.772  0.00  0.00    -0.090 HD
ATOM     21  H   LIG d   1     -19.043  64.040 118.789  0.00  0.00    -0.090 HD
ENDBRANCH   5  18
BRANCH   3  22
ATOM     22  C   LIG d   1     -20.170  64.694 114.305  0.00  0.00     0.382 C 
ATOM     23  O   LIG d   1     -20.072  64.640 113.056  0.00  0.00    -0.241 OA
ATOM     24  O   LIG d   1     -21.281  64.917 114.824  0.00  0.00    -0.241 OA
ENDBRANCH   3  22
TORSDOF 7
ENDMDL
MODEL 3
REMARK VINA RESULT:      -4.8     18.587     21.005
REMARK  7 active torsions:
REMARK  status: ('A' for Active; 'I' for Inactive)
REMARK    1  A    between atoms: C_2  and  C_3 
REMARK    2  A    between atoms: C_3  and  O_6 
REMARK    3  A    between atoms: C_3  and  C_4 
REMARK    4  A    between atoms: C_7  and  O_6 
REMARK    5  A    between atoms: C_9  and  C_10 
REMARK    6  A    between atoms: N_15  and  C_14 
REMARK    7  A    between atoms: N_20  and  C_19 
REMARK       I    between atoms: C_22  and  N_20 
ROOT
ATOM      1  C   LIG d   1      -6.475  76.908 117.592  0.00  0.00     0.161 C 
ATOM      2  C   LIG d   1      -7.856  76.715 117.771  0.00  0.00     0.016 C 
ATOM      3  C   LIG d   1      -8.698  77.661 118.399  0.00  0.00     0.038 C 
ATOM      4  C   LIG d   1      -8.242  78.938 118.758  0.00  0.00     0.028 C 
ATOM      5  C   LIG d   1      -6.747  78.985 119.055  0.00  0.00    -0.047 C 
ATOM      6  C   LIG d   1      -5.980  78.341 117.878  0.00  0.00     0.091 C 
ENDROOT
BRANCH   1   7
ATOM      7  O   LIG d   1      -6.093  76.501 116.264  0.00  0.00    -0.368 OA
BRANCH   7   8
ATOM      8  C   LIG d   1      -5.484  75.192 116.149  0.00  0.00     0.119 C 
BRANCH   8   9
ATOM      9  C   LIG d   1      -3.969  75.402 115.956  0.00  0.00     0.028 C 
ATOM     10  C   LIG d   1      -3.155  74.963 117.185  0.00  0.00     0.006 C 
ENDBRANCH   8   9
BRANCH   8  11
ATOM     11  C   LIG d   1      -5.956  74.466 114.885  0.00  0.00     0.028 C 
ATOM     12  C   LIG d   1      -5.282  74.993 113.608  0.00  0.00     0.006 C 
ENDBRANCH   8  11
ENDBRANCH   7   8
ENDBRANCH   1   7
BRANCH   6  13
ATOM     13  N   LIG d   1      -4.516  78.270 118.125  0.00  0.00    -0.311 N 
ATOM     14  C   LIG d   1      -3.612  78.865 117.349  0.00  0.00     0.210 C 
ATOM     15  C   LIG d   1      -2.155  78.648 117.771  0.00  0.00     0.109 C 
ATOM     16  O   LIG d   1      -3.879  79.577 116.369  0.00  0.00    -0.276 OA
ATOM     17  H   LIG d   1      -4.213  77.739 118.917  0.00  0.00     0.149 HD
ENDBRANCH   6  13
BRANCH   5  18
ATOM     18  N   LIG d   1      -6.381  80.397 119.280  0.00  0.00     0.381 N 
ATOM     19  H   LIG d   1      -5.535  80.609 118.791  0.00  0.00    -0.090 HD
ATOM     20  H   LIG d   1      -6.223  80.539 120.262  0.00  0.00    -0.090 HD
ATOM     21  H   LIG d   1      -7.114  80.993 118.965  0.00  0.00    -0.090 HD
ENDBRANCH   5  18
BRANCH   3  22
ATOM     22  C   LIG d   1     -10.005  77.318 118.710  0.00  0.00     0.382 C 
ATOM     23  O   LIG d   1     -10.593  77.885 119.661  0.00  0.00    -0.241 OA
ATOM     24  O   LIG d   1     -10.589  76.416 118.078  0.00  0.00    -0.241 OA
ENDBRANCH   3  22
TORSDOF 7
ENDMDL
MODEL 4
REMARK VINA RESULT:      -4.7     16.830     18.388
REMARK  7 active torsions:
REMARK  status: ('A' for Active; 'I' for Inactive)
REMARK    1  A    between atoms: C_2  and  C_3 
REMARK    2  A    between atoms: C_3  and  O_6 
REMARK    3  A    between atoms: C_3  and  C_4 
REMARK    4  A    between atoms: C_7  and  O_6 
REMARK    5  A    between atoms: C_9  and  C_10 
REMARK    6  A    between atoms: N_15  and  C_14 
REMARK    7  A    between atoms: N_20  and  C_19 
REMARK       I    between atoms: C_22  and  N_20 
ROOT
ATOM      1  C   LIG d   1     -14.997  66.173 117.713  0.00  0.00     0.161 C 
ATOM      2  C   LIG d   1     -15.040  67.006 116.583  0.00  0.00     0.016 C 
ATOM      3  C   LIG d   1     -15.471  66.568 115.310  0.00  0.00     0.038 C 
ATOM      4  C   LIG d   1     -16.035  65.299 115.114  0.00  0.00     0.028 C 
ATOM      5  C   LIG d   1     -15.544  64.257 116.114  0.00  0.00    -0.047 C 
ATOM      6  C   LIG d   1     -15.713  64.817 117.545  0.00  0.00     0.091 C 
ENDROOT
BRANCH   1   7
ATOM      7  O   LIG d   1     -15.518  66.876 118.859  0.00  0.00    -0.368 OA
BRANCH   7   8
ATOM      8  C   LIG d   1     -16.904  66.615 119.190  0.00  0.00     0.119 C 
BRANCH   8   9
ATOM      9  C   LIG d   1     -17.755  67.716 118.528  0.00  0.00     0.028 C 
ATOM     10  C   LIG d   1     -18.662  67.166 117.415  0.00  0.00     0.006 C 
ENDBRANCH   8   9
BRANCH   8  11
ATOM     11  C   LIG d   1     -17.154  66.759 120.695  0.00  0.00     0.028 C 
ATOM     12  C   LIG d   1     -17.878  68.066 121.055  0.00  0.00     0.006 C 
ENDBRANCH   8  11
ENDBRANCH   7   8
ENDBRANCH   1   7
BRANCH   6  13
ATOM     13  N   LIG d   1     -15.179  63.895 118.581  0.00  0.00    -0.311 N 
ATOM     14  C   LIG d   1     -15.952  63.209 119.421  0.00  0.00     0.210 C 
ATOM     15  C   LIG d   1     -15.198  62.331 120.424  0.00  0.00     0.109 C 
ATOM     16  O   LIG d   1     -17.192  63.220 119.410  0.00  0.00    -0.276 OA
ATOM     17  H   LIG d   1     -14.184  63.802 118.640  0.00  0.00     0.149 HD
ENDBRANCH   6  13
BRANCH   5  18
ATOM     18  N   LIG d   1     -16.314  63.020 115.883  0.00  0.00     0.381 N 
ATOM     19  H   LIG d   1     -15.690  62.269 115.666  0.00  0.00    -0.090 HD
ATOM     20  H   LIG d   1     -16.925  63.160 115.097  0.00  0.00    -0.090 HD
ATOM     21  H   LIG d   1     -16.848  62.794 116.693  0.00  0.00    -0.090 HD
ENDBRANCH   5  18
BRANCH   3  22
ATOM     22  C   LIG d   1     -15.302  67.391 114.206  0.00  0.00     0.382 C 
ATOM     23  O   LIG d   1     -15.484  68.628 114.313  0.00  0.00    -0.241 OA
ATOM     24  O   LIG d   1     -15.015  66.907 113.095  0.00  0.00    -0.241 OA
ENDBRANCH   3  22
TORSDOF 7
ENDMDL
MODEL 5
REMARK VINA RESULT:      -4.6     18.735     21.574
REMARK  7 active torsions:
REMARK  status: ('A' for Active; 'I' for Inactive)
REMARK    1  A    between atoms: C_2  and  C_3 
REMARK    2  A    between atoms: C_3  and  O_6 
REMARK    3  A    between atoms: C_3  and  C_4 
REMARK    4  A    between atoms: C_7  and  O_6 
REMARK    5  A    between atoms: C_9  and  C_10 
REMARK    6  A    between atoms: N_15  and  C_14 
REMARK    7  A    between atoms: N_20  and  C_19 
REMARK       I    between atoms: C_22  and  N_20 
ROOT
ATOM      1  C   LIG d   1      -6.016  77.664 117.942  0.00  0.00     0.161 C 
ATOM      2  C   LIG d   1      -7.247  76.988 117.975  0.00  0.00     0.016 C 
ATOM      3  C   LIG d   1      -8.480  77.631 118.232  0.00  0.00     0.038 C 
ATOM      4  C   LIG d   1      -8.584  79.027 118.324  0.00  0.00     0.028 C 
ATOM      5  C   LIG d   1      -7.301  79.700 118.798  0.00  0.00    -0.047 C 
ATOM      6  C   LIG d   1      -6.123  79.203 117.929  0.00  0.00     0.091 C 
ENDROOT
BRANCH   1   7
ATOM      7  O   LIG d   1      -5.238  77.206 116.818  0.00  0.00    -0.368 OA
BRANCH   7   8
ATOM      8  C   LIG d   1      -4.934  75.790 116.787  0.00  0.00     0.119 C 
BRANCH   8   9
ATOM      9  C   LIG d   1      -3.401  75.644 116.846  0.00  0.00     0.028 C 
ATOM     10  C   LIG d   1      -2.952  74.575 117.856  0.00  0.00     0.006 C 
ENDBRANCH   8   9
BRANCH   8  11
ATOM     11  C   LIG d   1      -5.351  75.160 115.455  0.00  0.00     0.028 C 
ATOM     12  C   LIG d   1      -6.203  73.893 115.636  0.00  0.00     0.006 C 
ENDBRANCH   8  11
ENDBRANCH   7   8
ENDBRANCH   1   7
BRANCH   6  13
ATOM     13  N   LIG d   1      -4.816  79.748 118.381  0.00  0.00    -0.311 N 
ATOM     14  C   LIG d   1      -4.270  80.854 117.878  0.00  0.00     0.210 C 
ATOM     15  C   LIG d   1      -2.908  81.230 118.471  0.00  0.00     0.109 C 
ATOM     16  O   LIG d   1      -4.799  81.577 117.021  0.00  0.00    -0.276 OA
ATOM     17  H   LIG d   1      -4.333  79.241 119.096  0.00  0.00     0.149 HD
ENDBRANCH   6  13
BRANCH   5  18
ATOM     18  N   LIG d   1      -7.505  81.158 118.716  0.00  0.00     0.381 N 
ATOM     19  H   LIG d   1      -8.210  81.439 119.369  0.00  0.00    -0.090 HD
ATOM     20  H   LIG d   1      -7.822  81.390 117.791  0.00  0.00    -0.090 HD
ATOM     21  H   LIG d   1      -6.652  81.634 118.912  0.00  0.00    -0.090 HD
ENDBRANCH   5  18
BRANCH   3  22
ATOM     22  C   LIG d   1      -9.621  76.871 118.439  0.00  0.00     0.382 C 
ATOM     23  O   LIG d   1      -9.568  75.621 118.341  0.00  0.00    -0.241 OA
ATOM     24  O   LIG d   1     -10.712  77.421 118.679  0.00  0.00    -0.241 OA
ENDBRANCH   3  22
TORSDOF 7
ENDMDL
MODEL 6
REMARK VINA RESULT:      -4.6     16.976     19.740
REMARK  7 active torsions:
REMARK  status: ('A' for Active; 'I' for Inactive)
REMARK    1  A    between atoms: C_2  and  C_3 
REMARK    2  A    between atoms: C_3  and  O_6 
REMARK    3  A    between atoms: C_3  and  C_4 
REMARK    4  A    between atoms: C_7  and  O_6 
REMARK    5  A    between atoms: C_9  and  C_10 
REMARK    6  A    between atoms: N_15  and  C_14 
REMARK    7  A    between atoms: N_20  and  C_19 
REMARK       I    between atoms: C_22  and  N_20 
ROOT
ATOM      1  C   LIG d   1      -2.749  76.068 115.765  0.00  0.00     0.161 C 
ATOM      2  C   LIG d   1      -2.575  75.060 116.728  0.00  0.00     0.016 C 
ATOM      3  C   LIG d   1      -1.572  75.100 117.724  0.00  0.00     0.038 C 
ATOM      4  C   LIG d   1      -0.766  76.231 117.920  0.00  0.00     0.028 C 
ATOM      5  C   LIG d   1      -0.568  77.060 116.655  0.00  0.00    -0.047 C 
ATOM      6  C   LIG d   1      -1.950  77.361 116.031  0.00  0.00     0.091 C 
ENDROOT
BRANCH   1   7
ATOM      7  O   LIG d   1      -4.151  76.366 115.618  0.00  0.00    -0.368 OA
BRANCH   7   8
ATOM      8  C   LIG d   1      -5.052  75.638 116.488  0.00  0.00     0.119 C 
BRANCH   8   9
ATOM      9  C   LIG d   1      -6.130  74.988 115.599  0.00  0.00     0.028 C 
ATOM     10  C   LIG d   1      -5.658  74.798 114.148  0.00  0.00     0.006 C 
ENDBRANCH   8   9
BRANCH   8  11
ATOM     11  C   LIG d   1      -5.813  76.586 117.420  0.00  0.00     0.028 C 
ATOM     12  C   LIG d   1      -7.312  76.259 117.509  0.00  0.00     0.006 C 
ENDBRANCH   8  11
ENDBRANCH   7   8
ENDBRANCH   1   7
BRANCH   6  13
ATOM     13  N   LIG d   1      -1.843  78.097 114.744  0.00  0.00    -0.311 N 
ATOM     14  C   LIG d   1      -2.457  79.255 114.509  0.00  0.00     0.210 C 
ATOM     15  C   LIG d   1      -2.230  79.834 113.109  0.00  0.00     0.109 C 
ATOM     16  O   LIG d   1      -3.142  79.873 115.337  0.00  0.00    -0.276 OA
ATOM     17  H   LIG d   1      -1.281  77.681 114.027  0.00  0.00     0.149 HD
ENDBRANCH   6  13
BRANCH   5  18
ATOM     18  N   LIG d   1       0.174  78.278 117.031  0.00  0.00     0.381 N 
ATOM     19  H   LIG d   1       0.208  78.908 116.255  0.00  0.00    -0.090 HD
ATOM     20  H   LIG d   1       1.116  78.023 117.271  0.00  0.00    -0.090 HD
ATOM     21  H   LIG d   1      -0.267  78.719 117.808  0.00  0.00    -0.090 HD
ENDBRANCH   5  18
BRANCH   3  22
ATOM     22  C   LIG d   1      -1.342  73.983 118.513  0.00  0.00     0.382 C 
ATOM     23  O   LIG d   1      -2.284  73.199 118.781  0.00  0.00    -0.241 OA
ATOM     24  O   LIG d   1      -0.213  73.773 118.996  0.00  0.00    -0.241 OA
ENDBRANCH   3  22
TORSDOF 7
ENDMDL
MODEL 7
REMARK VINA RESULT:      -4.5     17.079     18.768
REMARK  7 active torsions:
REMARK  status: ('A' for Active; 'I' for Inactive)
REMARK    1  A    between atoms: C_2  and  C_3 
REMARK    2  A    between atoms: C_3  and  O_6 
REMARK    3  A    between atoms: C_3  and  C_4 
REMARK    4  A    between atoms: C_7  and  O_6 
REMARK    5  A    between atoms: C_9  and  C_10 
REMARK    6  A    between atoms: N_15  and  C_14 
REMARK    7  A    between atoms: N_20  and  C_19 
REMARK       I    between atoms: C_22  and  N_20 
ROOT
ATOM      1  C   LIG d   1     -16.816  65.194 115.928  0.00  0.00     0.161 C 
ATOM      2  C   LIG d   1     -16.512  66.052 114.858  0.00  0.00     0.016 C 
ATOM      3  C   LIG d   1     -15.466  67.002 114.895  0.00  0.00     0.038 C 
ATOM      4  C   LIG d   1     -14.550  67.056 115.956  0.00  0.00     0.028 C 
ATOM      5  C   LIG d   1     -15.123  66.552 117.277  0.00  0.00    -0.047 C 
ATOM      6  C   LIG d   1     -15.757  65.161 117.051  0.00  0.00     0.091 C 
ENDROOT
BRANCH   1   7
ATOM      7  O   LIG d   1     -17.062  63.863 115.432  0.00  0.00    -0.368 OA
BRANCH   7   8
ATOM      8  C   LIG d   1     -18.437  63.409 115.480  0.00  0.00     0.119 C 
BRANCH   8   9
ATOM      9  C   LIG d   1     -18.927  63.261 114.027  0.00  0.00     0.028 C 
ATOM     10  C   LIG d   1     -17.789  62.895 113.059  0.00  0.00     0.006 C 
ENDBRANCH   8   9
BRANCH   8  11
ATOM     11  C   LIG d   1     -19.350  64.465 116.110  0.00  0.00     0.028 C 
ATOM     12  C   LIG d   1     -19.909  64.032 117.475  0.00  0.00     0.006 C 
ENDBRANCH   8  11
ENDBRANCH   7   8
ENDBRANCH   1   7
BRANCH   6  13
ATOM     13  N   LIG d   1     -16.415  64.632 118.274  0.00  0.00    -0.311 N 
ATOM     14  C   LIG d   1     -15.816  63.806 119.130  0.00  0.00     0.210 C 
ATOM     15  C   LIG d   1     -16.680  63.365 120.315  0.00  0.00     0.109 C 
ATOM     16  O   LIG d   1     -14.640  63.423 119.038  0.00  0.00    -0.276 OA
ATOM     17  H   LIG d   1     -17.360  64.917 118.443  0.00  0.00     0.149 HD
ENDBRANCH   6  13
BRANCH   5  18
ATOM     18  N   LIG d   1     -14.024  66.533 118.261  0.00  0.00     0.381 N 
ATOM     19  H   LIG d   1     -13.206  66.950 117.863  0.00  0.00    -0.090 HD
ATOM     20  H   LIG d   1     -13.811  65.579 118.492  0.00  0.00    -0.090 HD
ATOM     21  H   LIG d   1     -14.293  67.030 119.082  0.00  0.00    -0.090 HD
ENDBRANCH   5  18
BRANCH   3  22
ATOM     22  C   LIG d   1     -15.354  67.940 113.880  0.00  0.00     0.382 C 
ATOM     23  O   LIG d   1     -16.287  68.086 113.055  0.00  0.00    -0.241 OA
ATOM     24  O   LIG d   1     -14.312  68.611 113.752  0.00  0.00    -0.241 OA
ENDBRANCH   3  22
TORSDOF 7
ENDMDL
MODEL 8
REMARK VINA RESULT:      -4.5     26.642     28.826
REMARK  7 active torsions:
REMARK  status: ('A' for Active; 'I' for Inactive)
REMARK    1  A    between atoms: C_2  and  C_3 
REMARK    2  A    between atoms: C_3  and  O_6 
REMARK    3  A    between atoms: C_3  and  C_4 
REMARK    4  A    between atoms: C_7  and  O_6 
REMARK    5  A    between atoms: C_9  and  C_10 
REMARK    6  A    between atoms: N_15  and  C_14 
REMARK    7  A    between atoms: N_20  and  C_19 
REMARK       I    between atoms: C_22  and  N_20 
ROOT
ATOM      1  C   LIG d   1       2.931  86.266 115.485  0.00  0.00     0.161 C 
ATOM      2  C   LIG d   1       2.864  87.483 114.786  0.00  0.00     0.016 C 
ATOM      3  C   LIG d   1       3.908  88.437 114.782  0.00  0.00     0.038 C 
ATOM      4  C   LIG d   1       5.159  88.169 115.357  0.00  0.00     0.028 C 
ATOM      5  C   LIG d   1       5.096  87.164 116.502  0.00  0.00    -0.047 C 
ATOM      6  C   LIG d   1       4.331  85.908 116.027  0.00  0.00     0.091 C 
ENDROOT
BRANCH   1   7
ATOM      7  O   LIG d   1       2.426  85.199 114.658  0.00  0.00    -0.368 OA
BRANCH   7   8
ATOM      8  C   LIG d   1       1.140  84.651 115.040  0.00  0.00     0.119 C 
BRANCH   8   9
ATOM      9  C   LIG d   1       1.249  83.116 114.958  0.00  0.00     0.028 C 
ATOM     10  C   LIG d   1       2.356  82.656 113.995  0.00  0.00     0.006 C 
ENDBRANCH   8   9
BRANCH   8  11
ATOM     11  C   LIG d   1       0.050  85.034 114.035  0.00  0.00     0.028 C 
ATOM     12  C   LIG d   1      -1.233  84.205 114.202  0.00  0.00     0.006 C 
ENDBRANCH   8  11
ENDBRANCH   7   8
ENDBRANCH   1   7
BRANCH   6  13
ATOM     13  N   LIG d   1       4.151  84.909 117.112  0.00  0.00    -0.311 N 
ATOM     14  C   LIG d   1       4.562  83.645 117.021  0.00  0.00     0.210 C 
ATOM     15  C   LIG d   1       4.259  82.777 118.246  0.00  0.00     0.109 C 
ATOM     16  O   LIG d   1       5.176  83.169 116.054  0.00  0.00    -0.276 OA
ATOM     17  H   LIG d   1       3.690  85.218 117.945  0.00  0.00     0.149 HD
ENDBRANCH   6  13
BRANCH   5  18
ATOM     18  N   LIG d   1       6.482  86.874 116.917  0.00  0.00     0.381 N 
ATOM     19  H   LIG d   1       6.967  87.730 117.098  0.00  0.00    -0.090 HD
ATOM     20  H   LIG d   1       6.953  86.398 116.168  0.00  0.00    -0.090 HD
ATOM     21  H   LIG d   1       6.481  86.304 117.734  0.00  0.00    -0.090 HD
ENDBRANCH   5  18
BRANCH   3  22
ATOM     22  C   LIG d   1       3.691  89.690 114.231  0.00  0.00     0.382 C 
ATOM     23  O   LIG d   1       3.850  90.719 114.931  0.00  0.00    -0.241 OA
ATOM     24  O   LIG d   1       3.295  89.804 113.055  0.00  0.00    -0.241 OA
ENDBRANCH   3  22
TORSDOF 7
ENDMDL
MODEL 9
REMARK VINA RESULT:      -4.4     17.617     19.377
REMARK  7 active torsions:
REMARK  status: ('A' for Active; 'I' for Inactive)
REMARK    1  A    between atoms: C_2  and  C_3 
REMARK    2  A    between atoms: C_3  and  O_6 
REMARK    3  A    between atoms: C_3  and  C_4 
REMARK    4  A    between atoms: C_7  and  O_6 
REMARK    5  A    between atoms: C_9  and  C_10 
REMARK    6  A    between atoms: N_15  and  C_14 
REMARK    7  A    between atoms: N_20  and  C_19 
REMARK       I    between atoms: C_22  and  N_20 
ROOT
ATOM      1  C   LIG d   1     -16.776  63.889 116.352  0.00  0.00     0.161 C 
ATOM      2  C   LIG d   1     -15.822  64.904 116.529  0.00  0.00     0.016 C 
ATOM      3  C   LIG d   1     -15.722  66.033 115.684  0.00  0.00     0.038 C 
ATOM      4  C   LIG d   1     -16.672  66.301 114.688  0.00  0.00     0.028 C 
ATOM      5  C   LIG d   1     -17.353  65.048 114.149  0.00  0.00    -0.047 C 
ATOM      6  C   LIG d   1     -17.891  64.219 115.338  0.00  0.00     0.091 C 
ENDROOT
BRANCH   1   7
ATOM      7  O   LIG d   1     -17.348  63.527 117.625  0.00  0.00    -0.368 OA
BRANCH   7   8
ATOM      8  C   LIG d   1     -18.424  64.371 118.103  0.00  0.00     0.119 C 
BRANCH   8   9
ATOM      9  C   LIG d   1     -17.964  65.000 119.432  0.00  0.00     0.028 C 
ATOM     10  C   LIG d   1     -17.718  66.513 119.311  0.00  0.00     0.006 C 
ENDBRANCH   8   9
BRANCH   8  11
ATOM     11  C   LIG d   1     -19.666  63.545 118.453  0.00  0.00     0.028 C 
ATOM     12  C   LIG d   1     -19.416  62.031 118.375  0.00  0.00     0.006 C 
ENDBRANCH   8  11
ENDBRANCH   7   8
ENDBRANCH   1   7
BRANCH   6  13
ATOM     13  N   LIG d   1     -18.499  62.934 114.904  0.00  0.00    -0.311 N 
ATOM     14  C   LIG d   1     -19.807  62.770 114.709  0.00  0.00     0.210 C 
ATOM     15  C   LIG d   1     -20.225  61.360 114.282  0.00  0.00     0.109 C 
ATOM     16  O   LIG d   1     -20.656  63.668 114.818  0.00  0.00    -0.276 OA
ATOM     17  H   LIG d   1     -17.879  62.161 114.761  0.00  0.00     0.149 HD
ENDBRANCH   6  13
BRANCH   5  18
ATOM     18  N   LIG d   1     -18.414  65.482 113.220  0.00  0.00     0.381 N 
ATOM     19  H   LIG d   1     -18.660  66.433 113.408  0.00  0.00    -0.090 HD
ATOM     20  H   LIG d   1     -19.227  64.910 113.365  0.00  0.00    -0.090 HD
ATOM     21  H   LIG d   1     -18.100  65.392 112.278  0.00  0.00    -0.090 HD
ENDBRANCH   5  18
BRANCH   3  22
ATOM     22  C   LIG d   1     -14.637  66.889 115.807  0.00  0.00     0.382 C 
ATOM     23  O   LIG d   1     -14.003  66.946 116.888  0.00  0.00    -0.241 OA
ATOM     24  O   LIG d   1     -14.313  67.637 114.866  0.00  0.00    -0.241 OA
ENDBRANCH   3  22
TORSDOF 7
ENDMDL
