MODEL 1
REMARK VINA RESULT:      -5.3      0.000      0.000
REMARK  7 active torsions:
REMARK  status: ('A' for Active; 'I' for Inactive)
REMARK    1  A    between atoms: C_2  and  C_3 
REMARK    2  A    between atoms: C_3  and  O_6 
REMARK    3  A    between atoms: C_3  and  C_4 
REMARK    4  A    between atoms: C_7  and  O_6 
REMARK    5  A    between atoms: C_9  and  C_10 
REMARK    6  A    between atoms: N_15  and  C_14 
REMARK    7  A    between atoms: N_20  and  C_19 
REMARK       I    between atoms: C_22  and  N_20 
ROOT
ATOM      1  C   LIG d   1      -4.740  75.808 117.650  0.00  0.00     0.161 C 
ATOM      2  C   LIG d   1      -5.913  76.552 117.856  0.00  0.00     0.016 C 
ATOM      3  C   LIG d   1      -6.049  77.909 117.486  0.00  0.00     0.038 C 
ATOM      4  C   LIG d   1      -5.064  78.577 116.742  0.00  0.00     0.028 C 
ATOM      5  C   LIG d   1      -3.662  78.017 116.953  0.00  0.00    -0.047 C 
ATOM      6  C   LIG d   1      -3.695  76.487 116.740  0.00  0.00     0.091 C 
ENDROOT
BRANCH   1   7
ATOM      7  O   LIG d   1      -5.073  74.501 117.142  0.00  0.00    -0.368 OA
BRANCH   7   8
ATOM      8  C   LIG d   1      -6.260  74.422 116.315  0.00  0.00     0.119 C 
BRANCH   8   9
ATOM      9  C   LIG d   1      -7.024  73.147 116.722  0.00  0.00     0.028 C 
ATOM     10  C   LIG d   1      -6.453  71.883 116.056  0.00  0.00     0.006 C 
ENDBRANCH   8   9
BRANCH   8  11
ATOM     11  C   LIG d   1      -5.900  74.225 114.840  0.00  0.00     0.028 C 
ATOM     12  C   LIG d   1      -6.142  75.486 113.994  0.00  0.00     0.006 C 
ENDBRANCH   8  11
ENDBRANCH   7   8
ENDBRANCH   1   7
BRANCH   6  13
ATOM     13  N   LIG d   1      -2.380  75.848 117.010  0.00  0.00    -0.311 N 
ATOM     14  C   LIG d   1      -1.770  75.035 116.149  0.00  0.00     0.210 C 
ATOM     15  C   LIG d   1      -0.431  74.468 116.633  0.00  0.00     0.109 C 
ATOM     16  O   LIG d   1      -2.194  74.754 115.018  0.00  0.00    -0.276 OA
ATOM     17  H   LIG d   1      -1.949  76.046 117.891  0.00  0.00     0.149 HD
ENDBRANCH   6  13
BRANCH   5  18
ATOM     18  N   LIG d   1      -2.759  78.712 116.017  0.00  0.00     0.381 N 
ATOM     19  H   LIG d   1      -2.792  79.698 116.183  0.00  0.00    -0.090 HD
ATOM     20  H   LIG d   1      -3.070  78.540 115.077  0.00  0.00    -0.090 HD
ATOM     21  H   LIG d   1      -1.827  78.380 116.132  0.00  0.00    -0.090 HD
ENDBRANCH   5  18
BRANCH   3  22
ATOM     22  C   LIG d   1      -7.163  78.625 117.896  0.00  0.00     0.382 C 
ATOM     23  O   LIG d   1      -7.998  78.098 118.670  0.00  0.00    -0.241 OA
ATOM     24  O   LIG d   1      -7.368  79.776 117.466  0.00  0.00    -0.241 OA
ENDBRANCH   3  22
TORSDOF 7
ENDMDL
MODEL 2
REMARK VINA RESULT:      -5.3     14.460     17.358
REMARK  7 active torsions:
REMARK  status: ('A' for Active; 'I' for Inactive)
REMARK    1  A    between atoms: C_2  and  C_3 
REMARK    2  A    between atoms: C_3  and  O_6 
REMARK    3  A    between atoms: C_3  and  C_4 
REMARK    4  A    between atoms: C_7  and  O_6 
REMARK    5  A    between atoms: C_9  and  C_10 
REMARK    6  A    between atoms: N_15  and  C_14 
REMARK    7  A    between atoms: N_20  and  C_19 
REMARK       I    between atoms: C_22  and  N_20 
ROOT
ATOM      1  C   LIG d   1      -6.093  92.894 118.036  0.00  0.00     0.161 C 
ATOM      2  C   LIG d   1      -6.870  92.046 117.229  0.00  0.00     0.016 C 
ATOM      3  C   LIG d   1      -6.342  90.933 116.535  0.00  0.00     0.038 C 
ATOM      4  C   LIG d   1      -5.021  90.501 116.723  0.00  0.00     0.028 C 
ATOM      5  C   LIG d   1      -4.070  91.620 117.134  0.00  0.00    -0.047 C 
ATOM      6  C   LIG d   1      -4.673  92.373 118.342  0.00  0.00     0.091 C 
ENDROOT
BRANCH   1   7
ATOM      7  O   LIG d   1      -6.796  93.181 119.261  0.00  0.00    -0.368 OA
BRANCH   7   8
ATOM      8  C   LIG d   1      -7.708  94.306 119.223  0.00  0.00     0.119 C 
BRANCH   8   9
ATOM      9  C   LIG d   1      -6.912  95.532 118.738  0.00  0.00     0.028 C 
ATOM     10  C   LIG d   1      -6.073  96.169 119.859  0.00  0.00     0.006 C 
ENDBRANCH   8   9
BRANCH   8  11
ATOM     11  C   LIG d   1      -8.200  94.672 120.627  0.00  0.00     0.028 C 
ATOM     12  C   LIG d   1      -9.621  94.161 120.912  0.00  0.00     0.006 C 
ENDBRANCH   8  11
ENDBRANCH   7   8
ENDBRANCH   1   7
BRANCH   6  13
ATOM     13  N   LIG d   1      -3.846  93.537 118.754  0.00  0.00    -0.311 N 
ATOM     14  C   LIG d   1      -2.924  93.478 119.713  0.00  0.00     0.210 C 
ATOM     15  C   LIG d   1      -2.199  94.797 119.995  0.00  0.00     0.109 C 
ATOM     16  O   LIG d   1      -2.614  92.450 120.334  0.00  0.00    -0.276 OA
ATOM     17  H   LIG d   1      -4.010  94.404 118.281  0.00  0.00     0.149 HD
ENDBRANCH   6  13
BRANCH   5  18
ATOM     18  N   LIG d   1      -2.761  91.007 117.430  0.00  0.00     0.381 N 
ATOM     19  H   LIG d   1      -2.806  90.518 118.302  0.00  0.00    -0.090 HD
ATOM     20  H   LIG d   1      -2.073  91.734 117.511  0.00  0.00    -0.090 HD
ATOM     21  H   LIG d   1      -2.507  90.378 116.701  0.00  0.00    -0.090 HD
ENDBRANCH   5  18
BRANCH   3  22
ATOM     22  C   LIG d   1      -7.129  90.263 115.610  0.00  0.00     0.382 C 
ATOM     23  O   LIG d   1      -8.329  90.592 115.454  0.00  0.00    -0.241 OA
ATOM     24  O   LIG d   1      -6.665  89.306 114.962  0.00  0.00    -0.241 OA
ENDBRANCH   3  22
TORSDOF 7
ENDMDL
MODEL 3
REMARK VINA RESULT:      -5.1      1.581      4.976
REMARK  7 active torsions:
REMARK  status: ('A' for Active; 'I' for Inactive)
REMARK    1  A    between atoms: C_2  and  C_3 
REMARK    2  A    between atoms: C_3  and  O_6 
REMARK    3  A    between atoms: C_3  and  C_4 
REMARK    4  A    between atoms: C_7  and  O_6 
REMARK    5  A    between atoms: C_9  and  C_10 
REMARK    6  A    between atoms: N_15  and  C_14 
REMARK    7  A    between atoms: N_20  and  C_19 
REMARK       I    between atoms: C_22  and  N_20 
ROOT
ATOM      1  C   LIG d   1      -4.417  75.608 116.327  0.00  0.00     0.161 C 
ATOM      2  C   LIG d   1      -3.368  74.760 115.936  0.00  0.00     0.016 C 
ATOM      3  C   LIG d   1      -2.007  75.141 115.968  0.00  0.00     0.038 C 
ATOM      4  C   LIG d   1      -1.588  76.352 116.540  0.00  0.00     0.028 C 
ATOM      5  C   LIG d   1      -2.649  77.446 116.484  0.00  0.00    -0.047 C 
ATOM      6  C   LIG d   1      -3.973  76.892 117.059  0.00  0.00     0.091 C 
ENDROOT
BRANCH   1   7
ATOM      7  O   LIG d   1      -5.363  74.876 117.131  0.00  0.00    -0.368 OA
BRANCH   7   8
ATOM      8  C   LIG d   1      -6.294  74.032 116.409  0.00  0.00     0.119 C 
BRANCH   8   9
ATOM      9  C   LIG d   1      -7.704  74.617 116.614  0.00  0.00     0.028 C 
ATOM     10  C   LIG d   1      -7.961  75.851 115.733  0.00  0.00     0.006 C 
ENDBRANCH   8   9
BRANCH   8  11
ATOM     11  C   LIG d   1      -6.348  72.623 117.008  0.00  0.00     0.028 C 
ATOM     12  C   LIG d   1      -6.737  71.552 115.977  0.00  0.00     0.006 C 
ENDBRANCH   8  11
ENDBRANCH   7   8
ENDBRANCH   1   7
BRANCH   6  13
ATOM     13  N   LIG d   1      -5.086  77.872 116.965  0.00  0.00    -0.311 N 
ATOM     14  C   LIG d   1      -5.847  78.219 118.001  0.00  0.00     0.210 C 
ATOM     15  C   LIG d   1      -6.952  79.231 117.681  0.00  0.00     0.109 C 
ATOM     16  O   LIG d   1      -5.692  77.809 119.161  0.00  0.00    -0.276 OA
ATOM     17  H   LIG d   1      -5.262  78.277 116.066  0.00  0.00     0.149 HD
ENDBRANCH   6  13
BRANCH   5  18
ATOM     18  N   LIG d   1      -2.133  78.606 117.236  0.00  0.00     0.381 N 
ATOM     19  H   LIG d   1      -1.133  78.610 117.207  0.00  0.00    -0.090 HD
ATOM     20  H   LIG d   1      -2.420  78.525 118.196  0.00  0.00    -0.090 HD
ATOM     21  H   LIG d   1      -2.487  79.451 116.846  0.00  0.00    -0.090 HD
ENDBRANCH   5  18
BRANCH   3  22
ATOM     22  C   LIG d   1      -1.050  74.323 115.386  0.00  0.00     0.382 C 
ATOM     23  O   LIG d   1      -0.684  74.529 114.204  0.00  0.00    -0.241 OA
ATOM     24  O   LIG d   1      -0.582  73.354 116.013  0.00  0.00    -0.241 OA
ENDBRANCH   3  22
TORSDOF 7
ENDMDL
MODEL 4
REMARK VINA RESULT:      -5.0     14.147     16.877
REMARK  7 active torsions:
REMARK  status: ('A' for Active; 'I' for Inactive)
REMARK    1  A    between atoms: C_2  and  C_3 
REMARK    2  A    between atoms: C_3  and  O_6 
REMARK    3  A    between atoms: C_3  and  C_4 
REMARK    4  A    between atoms: C_7  and  O_6 
REMARK    5  A    between atoms: C_9  and  C_10 
REMARK    6  A    between atoms: N_15  and  C_14 
REMARK    7  A    between atoms: N_20  and  C_19 
REMARK       I    between atoms: C_22  and  N_20 
ROOT
ATOM      1  C   LIG d   1      -4.509  91.694 117.923  0.00  0.00     0.161 C 
ATOM      2  C   LIG d   1      -4.931  90.847 116.885  0.00  0.00     0.016 C 
ATOM      3  C   LIG d   1      -6.181  90.975 116.236  0.00  0.00     0.038 C 
ATOM      4  C   LIG d   1      -7.036  92.060 116.481  0.00  0.00     0.028 C 
ATOM      5  C   LIG d   1      -6.876  92.654 117.877  0.00  0.00    -0.047 C 
ATOM      6  C   LIG d   1      -5.380  92.951 118.127  0.00  0.00     0.091 C 
ENDROOT
BRANCH   1   7
ATOM      7  O   LIG d   1      -3.132  92.067 117.719  0.00  0.00    -0.368 OA
BRANCH   7   8
ATOM      8  C   LIG d   1      -2.179  91.535 118.672  0.00  0.00     0.119 C 
BRANCH   8   9
ATOM      9  C   LIG d   1      -1.215  92.676 119.049  0.00  0.00     0.028 C 
ATOM     10  C   LIG d   1      -1.537  93.286 120.424  0.00  0.00     0.006 C 
ENDBRANCH   8   9
BRANCH   8  11
ATOM     11  C   LIG d   1      -1.300  90.454 118.036  0.00  0.00     0.028 C 
ATOM     12  C   LIG d   1      -1.738  89.030 118.414  0.00  0.00     0.006 C 
ENDBRANCH   8  11
ENDBRANCH   7   8
ENDBRANCH   1   7
BRANCH   6  13
ATOM     13  N   LIG d   1      -5.125  93.456 119.502  0.00  0.00    -0.311 N 
ATOM     14  C   LIG d   1      -5.220  94.741 119.840  0.00  0.00     0.210 C 
ATOM     15  C   LIG d   1      -4.896  95.049 121.305  0.00  0.00     0.109 C 
ATOM     16  O   LIG d   1      -5.573  95.650 119.073  0.00  0.00    -0.276 OA
ATOM     17  H   LIG d   1      -4.864  92.782 120.194  0.00  0.00     0.149 HD
ENDBRANCH   6  13
BRANCH   5  18
ATOM     18  N   LIG d   1      -7.725  93.858 117.948  0.00  0.00     0.381 N 
ATOM     19  H   LIG d   1      -7.871  94.114 118.904  0.00  0.00    -0.090 HD
ATOM     20  H   LIG d   1      -8.618  93.652 117.537  0.00  0.00    -0.090 HD
ATOM     21  H   LIG d   1      -7.292  94.610 117.459  0.00  0.00    -0.090 HD
ENDBRANCH   5  18
BRANCH   3  22
ATOM     22  C   LIG d   1      -6.605  89.988 115.359  0.00  0.00     0.382 C 
ATOM     23  O   LIG d   1      -5.812  89.082 115.005  0.00  0.00    -0.241 OA
ATOM     24  O   LIG d   1      -7.755  90.017 114.883  0.00  0.00    -0.241 OA
ENDBRANCH   3  22
TORSDOF 7
ENDMDL
MODEL 5
REMARK VINA RESULT:      -4.8      2.816      5.082
REMARK  7 active torsions:
REMARK  status: ('A' for Active; 'I' for Inactive)
REMARK    1  A    between atoms: C_2  and  C_3 
REMARK    2  A    between atoms: C_3  and  O_6 
REMARK    3  A    between atoms: C_3  and  C_4 
REMARK    4  A    between atoms: C_7  and  O_6 
REMARK    5  A    between atoms: C_9  and  C_10 
REMARK    6  A    between atoms: N_15  and  C_14 
REMARK    7  A    between atoms: N_20  and  C_19 
REMARK       I    between atoms: C_22  and  N_20 
ROOT
ATOM      1  C   LIG d   1      -3.181  75.267 116.636  0.00  0.00     0.161 C 
ATOM      2  C   LIG d   1      -2.257  74.817 115.678  0.00  0.00     0.016 C 
ATOM      3  C   LIG d   1      -0.856  74.899 115.849  0.00  0.00     0.038 C 
ATOM      4  C   LIG d   1      -0.279  75.303 117.062  0.00  0.00     0.028 C 
ATOM      5  C   LIG d   1      -1.168  76.241 117.872  0.00  0.00    -0.047 C 
ATOM      6  C   LIG d   1      -2.571  75.608 118.012  0.00  0.00     0.091 C 
ENDROOT
BRANCH   1   7
ATOM      7  O   LIG d   1      -4.241  74.302 116.784  0.00  0.00    -0.368 OA
BRANCH   7   8
ATOM      8  C   LIG d   1      -5.557  74.731 116.354  0.00  0.00     0.119 C 
BRANCH   8   9
ATOM      9  C   LIG d   1      -6.592  73.873 117.107  0.00  0.00     0.028 C 
ATOM     10  C   LIG d   1      -6.607  72.413 116.625  0.00  0.00     0.006 C 
ENDBRANCH   8   9
BRANCH   8  11
ATOM     11  C   LIG d   1      -5.784  74.430 114.870  0.00  0.00     0.028 C 
ATOM     12  C   LIG d   1      -6.302  75.647 114.087  0.00  0.00     0.006 C 
ENDBRANCH   8  11
ENDBRANCH   7   8
ENDBRANCH   1   7
BRANCH   6  13
ATOM     13  N   LIG d   1      -3.527  76.499 118.720  0.00  0.00    -0.311 N 
ATOM     14  C   LIG d   1      -3.618  76.570 120.047  0.00  0.00     0.210 C 
ATOM     15  C   LIG d   1      -4.684  77.538 120.570  0.00  0.00     0.109 C 
ATOM     16  O   LIG d   1      -2.896  75.948 120.840  0.00  0.00    -0.276 OA
ATOM     17  H   LIG d   1      -4.130  77.063 118.153  0.00  0.00     0.149 HD
ENDBRANCH   6  13
BRANCH   5  18
ATOM     18  N   LIG d   1      -0.505  76.472 119.170  0.00  0.00     0.381 N 
ATOM     19  H   LIG d   1      -0.599  75.660 119.747  0.00  0.00    -0.090 HD
ATOM     20  H   LIG d   1      -0.956  77.242 119.633  0.00  0.00    -0.090 HD
ATOM     21  H   LIG d   1       0.459  76.679 119.029  0.00  0.00    -0.090 HD
ENDBRANCH   5  18
BRANCH   3  22
ATOM     22  C   LIG d   1      -0.016  74.614 114.783  0.00  0.00     0.382 C 
ATOM     23  O   LIG d   1      -0.443  73.946 113.810  0.00  0.00    -0.241 OA
ATOM     24  O   LIG d   1       1.175  74.977 114.803  0.00  0.00    -0.241 OA
ENDBRANCH   3  22
TORSDOF 7
ENDMDL
MODEL 6
REMARK VINA RESULT:      -4.7      2.362      3.283
REMARK  7 active torsions:
REMARK  status: ('A' for Active; 'I' for Inactive)
REMARK    1  A    between atoms: C_2  and  C_3 
REMARK    2  A    between atoms: C_3  and  O_6 
REMARK    3  A    between atoms: C_3  and  C_4 
REMARK    4  A    between atoms: C_7  and  O_6 
REMARK    5  A    between atoms: C_9  and  C_10 
REMARK    6  A    between atoms: N_15  and  C_14 
REMARK    7  A    between atoms: N_20  and  C_19 
REMARK       I    between atoms: C_22  and  N_20 
ROOT
ATOM      1  C   LIG d   1      -6.371  77.892 117.391  0.00  0.00     0.161 C 
ATOM      2  C   LIG d   1      -7.732  78.214 117.525  0.00  0.00     0.016 C 
ATOM      3  C   LIG d   1      -8.200  79.315 118.279  0.00  0.00     0.038 C 
ATOM      4  C   LIG d   1      -7.325  80.264 118.828  0.00  0.00     0.028 C 
ATOM      5  C   LIG d   1      -5.943  79.702 119.144  0.00  0.00    -0.047 C 
ATOM      6  C   LIG d   1      -5.397  78.980 117.892  0.00  0.00     0.091 C 
ENDROOT
BRANCH   1   7
ATOM      7  O   LIG d   1      -6.082  77.553 116.020  0.00  0.00    -0.368 OA
BRANCH   7   8
ATOM      8  C   LIG d   1      -5.869  76.147 115.743  0.00  0.00     0.119 C 
BRANCH   8   9
ATOM      9  C   LIG d   1      -7.226  75.547 115.328  0.00  0.00     0.028 C 
ATOM     10  C   LIG d   1      -7.825  74.641 116.417  0.00  0.00     0.006 C 
ENDBRANCH   8   9
BRANCH   8  11
ATOM     11  C   LIG d   1      -5.458  75.386 117.007  0.00  0.00     0.028 C 
ATOM     12  C   LIG d   1      -4.099  74.684 116.864  0.00  0.00     0.006 C 
ENDBRANCH   8  11
ENDBRANCH   7   8
ENDBRANCH   1   7
BRANCH   6  13
ATOM     13  N   LIG d   1      -4.085  78.328 118.140  0.00  0.00    -0.311 N 
ATOM     14  C   LIG d   1      -3.087  78.328 117.258  0.00  0.00     0.210 C 
ATOM     15  C   LIG d   1      -1.827  77.581 117.706  0.00  0.00     0.109 C 
ATOM     16  O   LIG d   1      -3.114  78.904 116.160  0.00  0.00    -0.276 OA
ATOM     17  H   LIG d   1      -3.965  77.863 119.019  0.00  0.00     0.149 HD
ENDBRANCH   6  13
BRANCH   5  18
ATOM     18  N   LIG d   1      -5.094  80.826 119.580  0.00  0.00     0.381 N 
ATOM     19  H   LIG d   1      -4.131  80.557 119.543  0.00  0.00    -0.090 HD
ATOM     20  H   LIG d   1      -5.321  81.055 120.532  0.00  0.00    -0.090 HD
ATOM     21  H   LIG d   1      -5.248  81.617 118.995  0.00  0.00    -0.090 HD
ENDBRANCH   5  18
BRANCH   3  22
ATOM     22  C   LIG d   1      -9.558  79.453 118.522  0.00  0.00     0.382 C 
ATOM     23  O   LIG d   1     -10.045  80.591 118.732  0.00  0.00    -0.241 OA
ATOM     24  O   LIG d   1     -10.295  78.451 118.578  0.00  0.00    -0.241 OA
ENDBRANCH   3  22
TORSDOF 7
ENDMDL
MODEL 7
REMARK VINA RESULT:      -4.6      2.493      4.984
REMARK  7 active torsions:
REMARK  status: ('A' for Active; 'I' for Inactive)
REMARK    1  A    between atoms: C_2  and  C_3 
REMARK    2  A    between atoms: C_3  and  O_6 
REMARK    3  A    between atoms: C_3  and  C_4 
REMARK    4  A    between atoms: C_7  and  O_6 
REMARK    5  A    between atoms: C_9  and  C_10 
REMARK    6  A    between atoms: N_15  and  C_14 
REMARK    7  A    between atoms: N_20  and  C_19 
REMARK       I    between atoms: C_22  and  N_20 
ROOT
ATOM      1  C   LIG d   1      -3.368  75.351 115.302  0.00  0.00     0.161 C 
ATOM      2  C   LIG d   1      -2.770  76.600 115.069  0.00  0.00     0.016 C 
ATOM      3  C   LIG d   1      -3.401  77.831 115.362  0.00  0.00     0.038 C 
ATOM      4  C   LIG d   1      -4.620  77.893 116.053  0.00  0.00     0.028 C 
ATOM      5  C   LIG d   1      -5.492  76.658 115.856  0.00  0.00    -0.047 C 
ATOM      6  C   LIG d   1      -4.651  75.397 116.158  0.00  0.00     0.091 C 
ENDROOT
BRANCH   1   7
ATOM      7  O   LIG d   1      -2.406  74.451 115.889  0.00  0.00    -0.368 OA
BRANCH   7   8
ATOM      8  C   LIG d   1      -1.500  75.032 116.859  0.00  0.00     0.119 C 
BRANCH   8   9
ATOM      9  C   LIG d   1      -0.093  74.474 116.571  0.00  0.00     0.028 C 
ATOM     10  C   LIG d   1       0.503  75.031 115.267  0.00  0.00     0.006 C 
ENDBRANCH   8   9
BRANCH   8  11
ATOM     11  C   LIG d   1      -1.836  74.570 118.281  0.00  0.00     0.028 C 
ATOM     12  C   LIG d   1      -2.179  75.737 119.220  0.00  0.00     0.006 C 
ENDBRANCH   8  11
ENDBRANCH   7   8
ENDBRANCH   1   7
BRANCH   6  13
ATOM     13  N   LIG d   1      -5.404  74.140 115.908  0.00  0.00    -0.311 N 
ATOM     14  C   LIG d   1      -6.222  73.586 116.801  0.00  0.00     0.210 C 
ATOM     15  C   LIG d   1      -6.884  72.280 116.348  0.00  0.00     0.109 C 
ATOM     16  O   LIG d   1      -6.488  74.068 117.912  0.00  0.00    -0.276 OA
ATOM     17  H   LIG d   1      -5.271  73.698 115.019  0.00  0.00     0.149 HD
ENDBRANCH   6  13
BRANCH   5  18
ATOM     18  N   LIG d   1      -6.666  76.795 116.739  0.00  0.00     0.381 N 
ATOM     19  H   LIG d   1      -7.491  76.923 116.188  0.00  0.00    -0.090 HD
ATOM     20  H   LIG d   1      -6.544  77.607 117.318  0.00  0.00    -0.090 HD
ATOM     21  H   LIG d   1      -6.760  75.983 117.309  0.00  0.00    -0.090 HD
ENDBRANCH   5  18
BRANCH   3  22
ATOM     22  C   LIG d   1      -2.830  79.017 114.926  0.00  0.00     0.382 C 
ATOM     23  O   LIG d   1      -3.501  79.818 114.232  0.00  0.00    -0.241 OA
ATOM     24  O   LIG d   1      -1.638  79.276 115.182  0.00  0.00    -0.241 OA
ENDBRANCH   3  22
TORSDOF 7
ENDMDL
MODEL 8
REMARK VINA RESULT:      -4.6     14.291     16.903
REMARK  7 active torsions:
REMARK  status: ('A' for Active; 'I' for Inactive)
REMARK    1  A    between atoms: C_2  and  C_3 
REMARK    2  A    between atoms: C_3  and  O_6 
REMARK    3  A    between atoms: C_3  and  C_4 
REMARK    4  A    between atoms: C_7  and  O_6 
REMARK    5  A    between atoms: C_9  and  C_10 
REMARK    6  A    between atoms: N_15  and  C_14 
REMARK    7  A    between atoms: N_20  and  C_19 
REMARK       I    between atoms: C_22  and  N_20 
ROOT
ATOM      1  C   LIG d   1      -0.489  91.703 118.031  0.00  0.00     0.161 C 
ATOM      2  C   LIG d   1       0.851  92.049 118.271  0.00  0.00     0.016 C 
ATOM      3  C   LIG d   1       1.286  93.378 118.479  0.00  0.00     0.038 C 
ATOM      4  C   LIG d   1       0.382  94.442 118.612  0.00  0.00     0.028 C 
ATOM      5  C   LIG d   1      -0.934  94.214 117.875  0.00  0.00    -0.047 C 
ATOM      6  C   LIG d   1      -1.505  92.837 118.282  0.00  0.00     0.091 C 
ENDROOT
BRANCH   1   7
ATOM      7  O   LIG d   1      -0.838  90.537 118.803  0.00  0.00    -0.368 OA
BRANCH   7   8
ATOM      8  C   LIG d   1      -0.991  89.303 118.060  0.00  0.00     0.119 C 
BRANCH   8   9
ATOM      9  C   LIG d   1      -2.385  88.734 118.389  0.00  0.00     0.028 C 
ATOM     10  C   LIG d   1      -2.374  87.845 119.644  0.00  0.00     0.006 C 
ENDBRANCH   8   9
BRANCH   8  11
ATOM     11  C   LIG d   1       0.004  88.239 118.536  0.00  0.00     0.028 C 
ATOM     12  C   LIG d   1       0.503  87.339 117.395  0.00  0.00     0.006 C 
ENDBRANCH   8  11
ENDBRANCH   7   8
ENDBRANCH   1   7
BRANCH   6  13
ATOM     13  N   LIG d   1      -2.749  92.498 117.544  0.00  0.00    -0.311 N 
ATOM     14  C   LIG d   1      -3.874  92.110 118.142  0.00  0.00     0.210 C 
ATOM     15  C   LIG d   1      -5.033  91.790 117.193  0.00  0.00     0.109 C 
ATOM     16  O   LIG d   1      -4.032  92.033 119.369  0.00  0.00    -0.276 OA
ATOM     17  H   LIG d   1      -2.719  92.564 116.545  0.00  0.00     0.149 HD
ENDBRANCH   6  13
BRANCH   5  18
ATOM     18  N   LIG d   1      -1.832  95.335 118.210  0.00  0.00     0.381 N 
ATOM     19  H   LIG d   1      -2.627  95.325 117.603  0.00  0.00    -0.090 HD
ATOM     20  H   LIG d   1      -1.340  96.200 118.071  0.00  0.00    -0.090 HD
ATOM     21  H   LIG d   1      -2.129  95.262 119.159  0.00  0.00    -0.090 HD
ENDBRANCH   5  18
BRANCH   3  22
ATOM     22  C   LIG d   1       2.644  93.659 118.517  0.00  0.00     0.382 C 
ATOM     23  O   LIG d   1       3.347  93.492 117.491  0.00  0.00    -0.241 OA
ATOM     24  O   LIG d   1       3.182  94.035 119.575  0.00  0.00    -0.241 OA
ENDBRANCH   3  22
TORSDOF 7
ENDMDL
MODEL 9
REMARK VINA RESULT:      -4.5     13.900     16.757
REMARK  7 active torsions:
REMARK  status: ('A' for Active; 'I' for Inactive)
REMARK    1  A    between atoms: C_2  and  C_3 
REMARK    2  A    between atoms: C_3  and  O_6 
REMARK    3  A    between atoms: C_3  and  C_4 
REMARK    4  A    between atoms: C_7  and  O_6 
REMARK    5  A    between atoms: C_9  and  C_10 
REMARK    6  A    between atoms: N_15  and  C_14 
REMARK    7  A    between atoms: N_20  and  C_19 
REMARK       I    between atoms: C_22  and  N_20 
ROOT
ATOM      1  C   LIG d   1      -4.267  92.151 118.351  0.00  0.00     0.161 C 
ATOM      2  C   LIG d   1      -3.871  93.094 119.314  0.00  0.00     0.016 C 
ATOM      3  C   LIG d   1      -4.714  94.126 119.786  0.00  0.00     0.038 C 
ATOM      4  C   LIG d   1      -6.070  94.193 119.436  0.00  0.00     0.028 C 
ATOM      5  C   LIG d   1      -6.378  93.565 118.080  0.00  0.00    -0.047 C 
ATOM      6  C   LIG d   1      -5.778  92.141 118.040  0.00  0.00     0.091 C 
ENDROOT
BRANCH   1   7
ATOM      7  O   LIG d   1      -3.828  90.836 118.745  0.00  0.00    -0.368 OA
BRANCH   7   8
ATOM      8  C   LIG d   1      -2.441  90.720 119.147  0.00  0.00     0.119 C 
BRANCH   8   9
ATOM      9  C   LIG d   1      -1.589  90.690 117.864  0.00  0.00     0.028 C 
ATOM     10  C   LIG d   1      -0.382  91.641 117.939  0.00  0.00     0.006 C 
ENDBRANCH   8   9
BRANCH   8  11
ATOM     11  C   LIG d   1      -2.172  89.383 119.844  0.00  0.00     0.028 C 
ATOM     12  C   LIG d   1      -2.386  88.175 118.918  0.00  0.00     0.006 C 
ENDBRANCH   8  11
ENDBRANCH   7   8
ENDBRANCH   1   7
BRANCH   6  13
ATOM     13  N   LIG d   1      -5.961  91.487 116.718  0.00  0.00    -0.311 N 
ATOM     14  C   LIG d   1      -6.987  90.689 116.430  0.00  0.00     0.210 C 
ATOM     15  C   LIG d   1      -6.974  90.102 115.015  0.00  0.00     0.109 C 
ATOM     16  O   LIG d   1      -7.925  90.437 117.202  0.00  0.00    -0.276 OA
ATOM     17  H   LIG d   1      -5.263  91.662 116.022  0.00  0.00     0.149 HD
ENDBRANCH   6  13
BRANCH   5  18
ATOM     18  N   LIG d   1      -7.842  93.582 117.904  0.00  0.00     0.381 N 
ATOM     19  H   LIG d   1      -8.207  94.471 118.182  0.00  0.00    -0.090 HD
ATOM     20  H   LIG d   1      -8.249  92.876 118.492  0.00  0.00    -0.090 HD
ATOM     21  H   LIG d   1      -8.073  93.404 116.951  0.00  0.00    -0.090 HD
ENDBRANCH   5  18
BRANCH   3  22
ATOM     22  C   LIG d   1      -4.190  95.128 120.589  0.00  0.00     0.382 C 
ATOM     23  O   LIG d   1      -4.717  96.267 120.593  0.00  0.00    -0.241 OA
ATOM     24  O   LIG d   1      -3.171  94.921 121.274  0.00  0.00    -0.241 OA
ENDBRANCH   3  22
TORSDOF 7
ENDMDL
