MODEL 1
REMARK VINA RESULT:      -5.4      0.000      0.000
REMARK  7 active torsions:
REMARK  status: ('A' for Active; 'I' for Inactive)
REMARK    1  A    between atoms: C_2  and  C_3 
REMARK    2  A    between atoms: C_3  and  O_6 
REMARK    3  A    between atoms: C_3  and  C_4 
REMARK    4  A    between atoms: C_7  and  O_6 
REMARK    5  A    between atoms: C_9  and  C_10 
REMARK    6  A    between atoms: N_15  and  C_14 
REMARK    7  A    between atoms: N_20  and  C_19 
REMARK       I    between atoms: C_22  and  N_20 
ROOT
ATOM      1  C   LIG d   1      -4.218  91.648 118.043  0.00  0.00     0.161 C 
ATOM      2  C   LIG d   1      -4.991  90.791 117.242  0.00  0.00     0.016 C 
ATOM      3  C   LIG d   1      -6.231  91.163 116.676  0.00  0.00     0.038 C 
ATOM      4  C   LIG d   1      -6.715  92.478 116.748  0.00  0.00     0.028 C 
ATOM      5  C   LIG d   1      -6.215  93.241 117.970  0.00  0.00    -0.047 C 
ATOM      6  C   LIG d   1      -4.675  93.122 118.040  0.00  0.00     0.091 C 
ENDROOT
BRANCH   1   7
ATOM      7  O   LIG d   1      -2.831  91.554 117.663  0.00  0.00    -0.368 OA
BRANCH   7   8
ATOM      8  C   LIG d   1      -1.931  91.016 118.663  0.00  0.00     0.119 C 
BRANCH   8   9
ATOM      9  C   LIG d   1      -0.551  91.665 118.442  0.00  0.00     0.028 C 
ATOM     10  C   LIG d   1       0.213  91.033 117.266  0.00  0.00     0.006 C 
ENDBRANCH   8   9
BRANCH   8  11
ATOM     11  C   LIG d   1      -1.709  89.513 118.462  0.00  0.00     0.028 C 
ATOM     12  C   LIG d   1      -2.516  88.655 119.450  0.00  0.00     0.006 C 
ENDBRANCH   8  11
ENDBRANCH   7   8
ENDBRANCH   1   7
BRANCH   6  13
ATOM     13  N   LIG d   1      -4.111  93.770 119.253  0.00  0.00    -0.311 N 
ATOM     14  C   LIG d   1      -3.056  94.582 119.227  0.00  0.00     0.210 C 
ATOM     15  C   LIG d   1      -2.626  95.127 120.593  0.00  0.00     0.109 C 
ATOM     16  O   LIG d   1      -2.455  94.928 118.199  0.00  0.00    -0.276 OA
ATOM     17  H   LIG d   1      -4.557  93.569 120.127  0.00  0.00     0.149 HD
ENDBRANCH   6  13
BRANCH   5  18
ATOM     18  N   LIG d   1      -6.682  94.635 117.847  0.00  0.00     0.381 N 
ATOM     19  H   LIG d   1      -5.913  95.230 117.611  0.00  0.00    -0.090 HD
ATOM     20  H   LIG d   1      -7.052  94.933 118.732  0.00  0.00    -0.090 HD
ATOM     21  H   LIG d   1      -7.387  94.697 117.146  0.00  0.00    -0.090 HD
ENDBRANCH   5  18
BRANCH   3  22
ATOM     22  C   LIG d   1      -7.022  90.203 116.062  0.00  0.00     0.382 C 
ATOM     23  O   LIG d   1      -7.949  89.652 116.703  0.00  0.00    -0.241 OA
ATOM     24  O   LIG d   1      -6.792  89.850 114.890  0.00  0.00    -0.241 OA
ENDBRANCH   3  22
TORSDOF 7
ENDMDL
MODEL 2
REMARK VINA RESULT:      -5.3     13.353     15.581
REMARK  7 active torsions:
REMARK  status: ('A' for Active; 'I' for Inactive)
REMARK    1  A    between atoms: C_2  and  C_3 
REMARK    2  A    between atoms: C_3  and  O_6 
REMARK    3  A    between atoms: C_3  and  C_4 
REMARK    4  A    between atoms: C_7  and  O_6 
REMARK    5  A    between atoms: C_9  and  C_10 
REMARK    6  A    between atoms: N_15  and  C_14 
REMARK    7  A    between atoms: N_20  and  C_19 
REMARK       I    between atoms: C_22  and  N_20 
ROOT
ATOM      1  C   LIG d   1      -1.508  77.292 114.802  0.00  0.00     0.161 C 
ATOM      2  C   LIG d   1      -2.827  76.981 114.432  0.00  0.00     0.016 C 
ATOM      3  C   LIG d   1      -3.563  75.915 114.997  0.00  0.00     0.038 C 
ATOM      4  C   LIG d   1      -3.079  75.175 116.087  0.00  0.00     0.028 C 
ATOM      5  C   LIG d   1      -1.557  75.126 116.156  0.00  0.00    -0.047 C 
ATOM      6  C   LIG d   1      -1.003  76.566 116.066  0.00  0.00     0.091 C 
ENDROOT
BRANCH   1   7
ATOM      7  O   LIG d   1      -1.365  78.718 114.952  0.00  0.00    -0.368 OA
BRANCH   7   8
ATOM      8  C   LIG d   1      -2.566  79.503 114.752  0.00  0.00     0.119 C 
BRANCH   8   9
ATOM      9  C   LIG d   1      -2.245  80.580 113.697  0.00  0.00     0.028 C 
ATOM     10  C   LIG d   1      -0.733  80.750 113.474  0.00  0.00     0.006 C 
ENDBRANCH   8   9
BRANCH   8  11
ATOM     11  C   LIG d   1      -2.944  80.276 116.019  0.00  0.00     0.028 C 
ATOM     12  C   LIG d   1      -1.851  80.223 117.098  0.00  0.00     0.006 C 
ENDBRANCH   8  11
ENDBRANCH   7   8
ENDBRANCH   1   7
BRANCH   6  13
ATOM     13  N   LIG d   1       0.483  76.602 116.042  0.00  0.00    -0.311 N 
ATOM     14  C   LIG d   1       1.229  76.788 117.130  0.00  0.00     0.210 C 
ATOM     15  C   LIG d   1       2.740  76.811 116.880  0.00  0.00     0.109 C 
ATOM     16  O   LIG d   1       0.784  76.904 118.282  0.00  0.00    -0.276 OA
ATOM     17  H   LIG d   1       0.927  76.485 115.153  0.00  0.00     0.149 HD
ENDBRANCH   6  13
BRANCH   5  18
ATOM     18  N   LIG d   1      -1.190  74.442 117.411  0.00  0.00     0.381 N 
ATOM     19  H   LIG d   1      -1.857  73.725 117.613  0.00  0.00    -0.090 HD
ATOM     20  H   LIG d   1      -1.208  75.110 118.162  0.00  0.00    -0.090 HD
ATOM     21  H   LIG d   1      -0.279  74.047 117.330  0.00  0.00    -0.090 HD
ENDBRANCH   5  18
BRANCH   3  22
ATOM     22  C   LIG d   1      -4.783  75.553 114.446  0.00  0.00     0.382 C 
ATOM     23  O   LIG d   1      -5.708  75.140 115.186  0.00  0.00    -0.241 OA
ATOM     24  O   LIG d   1      -4.955  75.593 113.213  0.00  0.00    -0.241 OA
ENDBRANCH   3  22
TORSDOF 7
ENDMDL
MODEL 3
REMARK VINA RESULT:      -5.3      2.478      5.294
REMARK  7 active torsions:
REMARK  status: ('A' for Active; 'I' for Inactive)
REMARK    1  A    between atoms: C_2  and  C_3 
REMARK    2  A    between atoms: C_3  and  O_6 
REMARK    3  A    between atoms: C_3  and  C_4 
REMARK    4  A    between atoms: C_7  and  O_6 
REMARK    5  A    between atoms: C_9  and  C_10 
REMARK    6  A    between atoms: N_15  and  C_14 
REMARK    7  A    between atoms: N_20  and  C_19 
REMARK       I    between atoms: C_22  and  N_20 
ROOT
ATOM      1  C   LIG d   1      -6.458  93.428 118.016  0.00  0.00     0.161 C 
ATOM      2  C   LIG d   1      -6.844  92.225 117.403  0.00  0.00     0.016 C 
ATOM      3  C   LIG d   1      -5.925  91.231 116.991  0.00  0.00     0.038 C 
ATOM      4  C   LIG d   1      -4.560  91.309 117.305  0.00  0.00     0.028 C 
ATOM      5  C   LIG d   1      -4.058  92.739 117.475  0.00  0.00    -0.047 C 
ATOM      6  C   LIG d   1      -4.983  93.481 118.466  0.00  0.00     0.091 C 
ENDROOT
BRANCH   1   7
ATOM      7  O   LIG d   1      -7.331  93.712 119.127  0.00  0.00    -0.368 OA
BRANCH   7   8
ATOM      8  C   LIG d   1      -8.093  94.942 119.041  0.00  0.00     0.119 C 
BRANCH   8   9
ATOM      9  C   LIG d   1      -9.537  94.623 119.472  0.00  0.00     0.028 C 
ATOM     10  C   LIG d   1      -9.990  95.466 120.676  0.00  0.00     0.006 C 
ENDBRANCH   8   9
BRANCH   8  11
ATOM     11  C   LIG d   1      -8.200  95.431 117.593  0.00  0.00     0.028 C 
ATOM     12  C   LIG d   1      -8.256  96.963 117.484  0.00  0.00     0.006 C 
ENDBRANCH   8  11
ENDBRANCH   7   8
ENDBRANCH   1   7
BRANCH   6  13
ATOM     13  N   LIG d   1      -4.612  94.911 118.625  0.00  0.00    -0.311 N 
ATOM     14  C   LIG d   1      -3.807  95.357 119.588  0.00  0.00     0.210 C 
ATOM     15  C   LIG d   1      -3.571  96.871 119.584  0.00  0.00     0.109 C 
ATOM     16  O   LIG d   1      -3.240  94.639 120.425  0.00  0.00    -0.276 OA
ATOM     17  H   LIG d   1      -5.002  95.559 117.969  0.00  0.00     0.149 HD
ENDBRANCH   6  13
BRANCH   5  18
ATOM     18  N   LIG d   1      -2.658  92.667 117.934  0.00  0.00     0.381 N 
ATOM     19  H   LIG d   1      -2.273  91.771 117.711  0.00  0.00    -0.090 HD
ATOM     20  H   LIG d   1      -2.636  92.780 118.932  0.00  0.00    -0.090 HD
ATOM     21  H   LIG d   1      -2.120  93.385 117.499  0.00  0.00    -0.090 HD
ENDBRANCH   5  18
BRANCH   3  22
ATOM     22  C   LIG d   1      -6.365  90.164 116.223  0.00  0.00     0.382 C 
ATOM     23  O   LIG d   1      -5.654  89.733 115.284  0.00  0.00    -0.241 OA
ATOM     24  O   LIG d   1      -7.484  89.657 116.429  0.00  0.00    -0.241 OA
ENDBRANCH   3  22
TORSDOF 7
ENDMDL
MODEL 4
REMARK VINA RESULT:      -5.2      1.695      2.438
REMARK  7 active torsions:
REMARK  status: ('A' for Active; 'I' for Inactive)
REMARK    1  A    between atoms: C_2  and  C_3 
REMARK    2  A    between atoms: C_3  and  O_6 
REMARK    3  A    between atoms: C_3  and  C_4 
REMARK    4  A    between atoms: C_7  and  O_6 
REMARK    5  A    between atoms: C_9  and  C_10 
REMARK    6  A    between atoms: N_15  and  C_14 
REMARK    7  A    between atoms: N_20  and  C_19 
REMARK       I    between atoms: C_22  and  N_20 
ROOT
ATOM      1  C   LIG d   1      -5.495  92.062 118.591  0.00  0.00     0.161 C 
ATOM      2  C   LIG d   1      -5.510  91.114 117.554  0.00  0.00     0.016 C 
ATOM      3  C   LIG d   1      -6.205  91.304 116.337  0.00  0.00     0.038 C 
ATOM      4  C   LIG d   1      -6.811  92.526 116.012  0.00  0.00     0.028 C 
ATOM      5  C   LIG d   1      -7.249  93.328 117.232  0.00  0.00    -0.047 C 
ATOM      6  C   LIG d   1      -6.058  93.447 118.210  0.00  0.00     0.091 C 
ENDROOT
BRANCH   1   7
ATOM      7  O   LIG d   1      -4.158  92.191 119.115  0.00  0.00    -0.368 OA
BRANCH   7   8
ATOM      8  C   LIG d   1      -3.091  92.236 118.135  0.00  0.00     0.119 C 
BRANCH   8   9
ATOM      9  C   LIG d   1      -1.937  91.366 118.668  0.00  0.00     0.028 C 
ATOM     10  C   LIG d   1      -2.230  89.861 118.543  0.00  0.00     0.006 C 
ENDBRANCH   8   9
BRANCH   8  11
ATOM     11  C   LIG d   1      -2.511  93.648 118.009  0.00  0.00     0.028 C 
ATOM     12  C   LIG d   1      -0.985  93.649 117.821  0.00  0.00     0.006 C 
ENDBRANCH   8  11
ENDBRANCH   7   8
ENDBRANCH   1   7
BRANCH   6  13
ATOM     13  N   LIG d   1      -6.425  94.145 119.469  0.00  0.00    -0.311 N 
ATOM     14  C   LIG d   1      -5.806  95.240 119.908  0.00  0.00     0.210 C 
ATOM     15  C   LIG d   1      -6.328  95.788 121.239  0.00  0.00     0.109 C 
ATOM     16  O   LIG d   1      -4.894  95.826 119.305  0.00  0.00    -0.276 OA
ATOM     17  H   LIG d   1      -7.175  93.754 120.005  0.00  0.00     0.149 HD
ENDBRANCH   6  13
BRANCH   5  18
ATOM     18  N   LIG d   1      -7.737  94.636 116.754  0.00  0.00     0.381 N 
ATOM     19  H   LIG d   1      -8.430  94.500 116.045  0.00  0.00    -0.090 HD
ATOM     20  H   LIG d   1      -6.969  95.142 116.352  0.00  0.00    -0.090 HD
ATOM     21  H   LIG d   1      -8.125  95.153 117.513  0.00  0.00    -0.090 HD
ENDBRANCH   5  18
BRANCH   3  22
ATOM     22  C   LIG d   1      -6.332  90.248 115.447  0.00  0.00     0.382 C 
ATOM     23  O   LIG d   1      -7.433  90.029 114.887  0.00  0.00    -0.241 OA
ATOM     24  O   LIG d   1      -5.371  89.486 115.230  0.00  0.00    -0.241 OA
ENDBRANCH   3  22
TORSDOF 7
ENDMDL
MODEL 5
REMARK VINA RESULT:      -5.1     13.510     15.755
REMARK  7 active torsions:
REMARK  status: ('A' for Active; 'I' for Inactive)
REMARK    1  A    between atoms: C_2  and  C_3 
REMARK    2  A    between atoms: C_3  and  O_6 
REMARK    3  A    between atoms: C_3  and  C_4 
REMARK    4  A    between atoms: C_7  and  O_6 
REMARK    5  A    between atoms: C_9  and  C_10 
REMARK    6  A    between atoms: N_15  and  C_14 
REMARK    7  A    between atoms: N_20  and  C_19 
REMARK       I    between atoms: C_22  and  N_20 
ROOT
ATOM      1  C   LIG d   1      -1.472  77.248 115.296  0.00  0.00     0.161 C 
ATOM      2  C   LIG d   1      -2.795  76.975 114.914  0.00  0.00     0.016 C 
ATOM      3  C   LIG d   1      -3.431  75.733 115.145  0.00  0.00     0.038 C 
ATOM      4  C   LIG d   1      -2.831  74.725 115.914  0.00  0.00     0.028 C 
ATOM      5  C   LIG d   1      -1.307  74.768 115.887  0.00  0.00    -0.047 C 
ATOM      6  C   LIG d   1      -0.839  76.200 116.234  0.00  0.00     0.091 C 
ENDROOT
BRANCH   1   7
ATOM      7  O   LIG d   1      -1.395  78.561 115.887  0.00  0.00    -0.368 OA
BRANCH   7   8
ATOM      8  C   LIG d   1      -1.073  79.648 114.985  0.00  0.00     0.119 C 
BRANCH   8   9
ATOM      9  C   LIG d   1      -0.207  80.656 115.765  0.00  0.00     0.028 C 
ATOM     10  C   LIG d   1       0.047  80.212 117.216  0.00  0.00     0.006 C 
ENDBRANCH   8   9
BRANCH   8  11
ATOM     11  C   LIG d   1      -2.329  80.424 114.577  0.00  0.00     0.028 C 
ATOM     12  C   LIG d   1      -2.420  80.655 113.060  0.00  0.00     0.006 C 
ENDBRANCH   8  11
ENDBRANCH   7   8
ENDBRANCH   1   7
BRANCH   6  13
ATOM     13  N   LIG d   1       0.637  76.350 116.148  0.00  0.00    -0.311 N 
ATOM     14  C   LIG d   1       1.400  76.702 117.181  0.00  0.00     0.210 C 
ATOM     15  C   LIG d   1       2.895  76.820 116.870  0.00  0.00     0.109 C 
ATOM     16  O   LIG d   1       0.984  76.897 118.333  0.00  0.00    -0.276 OA
ATOM     17  H   LIG d   1       1.061  76.181 115.257  0.00  0.00     0.149 HD
ENDBRANCH   6  13
BRANCH   5  18
ATOM     18  N   LIG d   1      -0.815  73.752 116.837  0.00  0.00     0.381 N 
ATOM     19  H   LIG d   1      -1.580  73.199 117.167  0.00  0.00    -0.090 HD
ATOM     20  H   LIG d   1      -0.401  74.218 117.625  0.00  0.00    -0.090 HD
ATOM     21  H   LIG d   1      -0.140  73.169 116.394  0.00  0.00    -0.090 HD
ENDBRANCH   5  18
BRANCH   3  22
ATOM     22  C   LIG d   1      -4.666  75.475 114.570  0.00  0.00     0.382 C 
ATOM     23  O   LIG d   1      -5.651  75.199 115.296  0.00  0.00    -0.241 OA
ATOM     24  O   LIG d   1      -4.798  75.473 113.331  0.00  0.00    -0.241 OA
ENDBRANCH   3  22
TORSDOF 7
ENDMDL
MODEL 6
REMARK VINA RESULT:      -5.1     13.353     15.692
REMARK  7 active torsions:
REMARK  status: ('A' for Active; 'I' for Inactive)
REMARK    1  A    between atoms: C_2  and  C_3 
REMARK    2  A    between atoms: C_3  and  O_6 
REMARK    3  A    between atoms: C_3  and  C_4 
REMARK    4  A    between atoms: C_7  and  O_6 
REMARK    5  A    between atoms: C_9  and  C_10 
REMARK    6  A    between atoms: N_15  and  C_14 
REMARK    7  A    between atoms: N_20  and  C_19 
REMARK       I    between atoms: C_22  and  N_20 
ROOT
ATOM      1  C   LIG d   1      -1.565  77.450 115.210  0.00  0.00     0.161 C 
ATOM      2  C   LIG d   1      -2.881  77.177 114.801  0.00  0.00     0.016 C 
ATOM      3  C   LIG d   1      -3.509  75.924 114.988  0.00  0.00     0.038 C 
ATOM      4  C   LIG d   1      -2.912  74.899 115.736  0.00  0.00     0.028 C 
ATOM      5  C   LIG d   1      -1.388  74.955 115.733  0.00  0.00    -0.047 C 
ATOM      6  C   LIG d   1      -0.937  76.380 116.128  0.00  0.00     0.091 C 
ENDROOT
BRANCH   1   7
ATOM      7  O   LIG d   1      -1.508  78.745 115.840  0.00  0.00    -0.368 OA
BRANCH   7   8
ATOM      8  C   LIG d   1      -1.794  78.777 117.260  0.00  0.00     0.119 C 
BRANCH   8   9
ATOM      9  C   LIG d   1      -3.213  79.353 117.433  0.00  0.00     0.028 C 
ATOM     10  C   LIG d   1      -3.519  80.473 116.424  0.00  0.00     0.006 C 
ENDBRANCH   8   9
BRANCH   8  11
ATOM     11  C   LIG d   1      -0.869  79.752 117.994  0.00  0.00     0.028 C 
ATOM     12  C   LIG d   1       0.245  80.308 117.093  0.00  0.00     0.006 C 
ENDBRANCH   8  11
ENDBRANCH   7   8
ENDBRANCH   1   7
BRANCH   6  13
ATOM     13  N   LIG d   1       0.538  76.544 116.067  0.00  0.00    -0.311 N 
ATOM     14  C   LIG d   1       1.303  76.710 117.145  0.00  0.00     0.210 C 
ATOM     15  C   LIG d   1       2.798  76.881 116.858  0.00  0.00     0.109 C 
ATOM     16  O   LIG d   1       0.888  76.700 118.314  0.00  0.00    -0.276 OA
ATOM     17  H   LIG d   1       0.962  76.534 115.160  0.00  0.00     0.149 HD
ENDBRANCH   6  13
BRANCH   5  18
ATOM     18  N   LIG d   1      -0.902  73.916 116.660  0.00  0.00     0.381 N 
ATOM     19  H   LIG d   1       0.087  74.005 116.779  0.00  0.00    -0.090 HD
ATOM     20  H   LIG d   1      -1.092  73.012 116.265  0.00  0.00    -0.090 HD
ATOM     21  H   LIG d   1      -1.359  74.005 117.541  0.00  0.00    -0.090 HD
ENDBRANCH   5  18
BRANCH   3  22
ATOM     22  C   LIG d   1      -4.734  75.674 114.387  0.00  0.00     0.382 C 
ATOM     23  O   LIG d   1      -4.872  75.843 113.151  0.00  0.00    -0.241 OA
ATOM     24  O   LIG d   1      -5.713  75.323 115.072  0.00  0.00    -0.241 OA
ENDBRANCH   3  22
TORSDOF 7
ENDMDL
MODEL 7
REMARK VINA RESULT:      -5.0      2.274      4.399
REMARK  7 active torsions:
REMARK  status: ('A' for Active; 'I' for Inactive)
REMARK    1  A    between atoms: C_2  and  C_3 
REMARK    2  A    between atoms: C_3  and  O_6 
REMARK    3  A    between atoms: C_3  and  C_4 
REMARK    4  A    between atoms: C_7  and  O_6 
REMARK    5  A    between atoms: C_9  and  C_10 
REMARK    6  A    between atoms: N_15  and  C_14 
REMARK    7  A    between atoms: N_20  and  C_19 
REMARK       I    between atoms: C_22  and  N_20 
ROOT
ATOM      1  C   LIG d   1      -5.192  93.188 117.560  0.00  0.00     0.161 C 
ATOM      2  C   LIG d   1      -6.223  92.700 116.739  0.00  0.00     0.016 C 
ATOM      3  C   LIG d   1      -6.278  91.367 116.270  0.00  0.00     0.038 C 
ATOM      4  C   LIG d   1      -5.381  90.386 116.718  0.00  0.00     0.028 C 
ATOM      5  C   LIG d   1      -4.031  90.950 117.147  0.00  0.00    -0.047 C 
ATOM      6  C   LIG d   1      -4.266  92.104 118.148  0.00  0.00     0.091 C 
ENDROOT
BRANCH   1   7
ATOM      7  O   LIG d   1      -5.750  93.997 118.615  0.00  0.00    -0.368 OA
BRANCH   7   8
ATOM      8  C   LIG d   1      -6.994  93.526 119.190  0.00  0.00     0.119 C 
BRANCH   8   9
ATOM      9  C   LIG d   1      -7.925  94.744 119.340  0.00  0.00     0.028 C 
ATOM     10  C   LIG d   1      -8.312  95.358 117.984  0.00  0.00     0.006 C 
ENDBRANCH   8   9
BRANCH   8  11
ATOM     11  C   LIG d   1      -6.785  92.997 120.612  0.00  0.00     0.028 C 
ATOM     12  C   LIG d   1      -5.561  93.617 121.304  0.00  0.00     0.006 C 
ENDBRANCH   8  11
ENDBRANCH   7   8
ENDBRANCH   1   7
BRANCH   6  13
ATOM     13  N   LIG d   1      -2.999  92.767 118.555  0.00  0.00    -0.311 N 
ATOM     14  C   LIG d   1      -2.320  92.441 119.654  0.00  0.00     0.210 C 
ATOM     15  C   LIG d   1      -1.051  93.263 119.898  0.00  0.00     0.109 C 
ATOM     16  O   LIG d   1      -2.632  91.527 120.432  0.00  0.00    -0.276 OA
ATOM     17  H   LIG d   1      -2.658  93.500 117.964  0.00  0.00     0.149 HD
ENDBRANCH   6  13
BRANCH   5  18
ATOM     18  N   LIG d   1      -3.246  89.840 117.719  0.00  0.00     0.381 N 
ATOM     19  H   LIG d   1      -2.891  89.262 116.983  0.00  0.00    -0.090 HD
ATOM     20  H   LIG d   1      -3.848  89.280 118.297  0.00  0.00    -0.090 HD
ATOM     21  H   LIG d   1      -2.492  90.199 118.262  0.00  0.00    -0.090 HD
ENDBRANCH   5  18
BRANCH   3  22
ATOM     22  C   LIG d   1      -7.217  91.015 115.312  0.00  0.00     0.382 C 
ATOM     23  O   LIG d   1      -8.017  91.875 114.872  0.00  0.00    -0.241 OA
ATOM     24  O   LIG d   1      -7.302  89.837 114.915  0.00  0.00    -0.241 OA
ENDBRANCH   3  22
TORSDOF 7
ENDMDL
MODEL 8
REMARK VINA RESULT:      -5.0     12.562     14.796
REMARK  7 active torsions:
REMARK  status: ('A' for Active; 'I' for Inactive)
REMARK    1  A    between atoms: C_2  and  C_3 
REMARK    2  A    between atoms: C_3  and  O_6 
REMARK    3  A    between atoms: C_3  and  C_4 
REMARK    4  A    between atoms: C_7  and  O_6 
REMARK    5  A    between atoms: C_9  and  C_10 
REMARK    6  A    between atoms: N_15  and  C_14 
REMARK    7  A    between atoms: N_20  and  C_19 
REMARK       I    between atoms: C_22  and  N_20 
ROOT
ATOM      1  C   LIG d   1      -3.235  78.415 114.704  0.00  0.00     0.161 C 
ATOM      2  C   LIG d   1      -4.092  77.319 114.899  0.00  0.00     0.016 C 
ATOM      3  C   LIG d   1      -3.632  75.993 115.074  0.00  0.00     0.038 C 
ATOM      4  C   LIG d   1      -2.269  75.694 115.218  0.00  0.00     0.028 C 
ATOM      5  C   LIG d   1      -1.353  76.696 114.524  0.00  0.00    -0.047 C 
ATOM      6  C   LIG d   1      -1.743  78.124 114.968  0.00  0.00     0.091 C 
ENDROOT
BRANCH   1   7
ATOM      7  O   LIG d   1      -3.678  79.529 115.503  0.00  0.00    -0.368 OA
BRANCH   7   8
ATOM      8  C   LIG d   1      -4.273  79.200 116.782  0.00  0.00     0.119 C 
BRANCH   8   9
ATOM      9  C   LIG d   1      -5.328  80.278 117.093  0.00  0.00     0.028 C 
ATOM     10  C   LIG d   1      -6.719  79.678 117.362  0.00  0.00     0.006 C 
ENDBRANCH   8   9
BRANCH   8  11
ATOM     11  C   LIG d   1      -3.247  79.298 117.915  0.00  0.00     0.028 C 
ATOM     12  C   LIG d   1      -3.153  78.009 118.747  0.00  0.00     0.006 C 
ENDBRANCH   8  11
ENDBRANCH   7   8
ENDBRANCH   1   7
BRANCH   6  13
ATOM     13  N   LIG d   1      -0.951  79.171 114.272  0.00  0.00    -0.311 N 
ATOM     14  C   LIG d   1      -0.392  80.205 114.898  0.00  0.00     0.210 C 
ATOM     15  C   LIG d   1       0.365  81.179 113.989  0.00  0.00     0.109 C 
ATOM     16  O   LIG d   1      -0.424  80.392 116.124  0.00  0.00    -0.276 OA
ATOM     17  H   LIG d   1      -0.848  79.081 113.280  0.00  0.00     0.149 HD
ENDBRANCH   6  13
BRANCH   5  18
ATOM     18  N   LIG d   1       0.037  76.342 114.870  0.00  0.00     0.381 N 
ATOM     19  H   LIG d   1       0.552  76.141 114.036  0.00  0.00    -0.090 HD
ATOM     20  H   LIG d   1       0.029  75.517 115.443  0.00  0.00    -0.090 HD
ATOM     21  H   LIG d   1       0.468  77.094 115.362  0.00  0.00    -0.090 HD
ENDBRANCH   5  18
BRANCH   3  22
ATOM     22  C   LIG d   1      -4.540  74.944 115.067  0.00  0.00     0.382 C 
ATOM     23  O   LIG d   1      -5.256  74.728 116.074  0.00  0.00    -0.241 OA
ATOM     24  O   LIG d   1      -4.620  74.185 114.083  0.00  0.00    -0.241 OA
ENDBRANCH   3  22
TORSDOF 7
ENDMDL
MODEL 9
REMARK VINA RESULT:      -4.8     13.700     16.526
REMARK  7 active torsions:
REMARK  status: ('A' for Active; 'I' for Inactive)
REMARK    1  A    between atoms: C_2  and  C_3 
REMARK    2  A    between atoms: C_3  and  O_6 
REMARK    3  A    between atoms: C_3  and  C_4 
REMARK    4  A    between atoms: C_7  and  O_6 
REMARK    5  A    between atoms: C_9  and  C_10 
REMARK    6  A    between atoms: N_15  and  C_14 
REMARK    7  A    between atoms: N_20  and  C_19 
REMARK       I    between atoms: C_22  and  N_20 
ROOT
ATOM      1  C   LIG d   1      -2.324  76.897 117.264  0.00  0.00     0.161 C 
ATOM      2  C   LIG d   1      -1.206  77.481 117.885  0.00  0.00     0.016 C 
ATOM      3  C   LIG d   1      -0.013  76.775 118.162  0.00  0.00     0.038 C 
ATOM      4  C   LIG d   1       0.200  75.469 117.698  0.00  0.00     0.028 C 
ATOM      5  C   LIG d   1      -1.088  74.674 117.510  0.00  0.00    -0.047 C 
ATOM      6  C   LIG d   1      -2.069  75.504 116.651  0.00  0.00     0.091 C 
ENDROOT
BRANCH   1   7
ATOM      7  O   LIG d   1      -2.853  77.794 116.268  0.00  0.00    -0.368 OA
BRANCH   7   8
ATOM      8  C   LIG d   1      -1.895  78.669 115.624  0.00  0.00     0.119 C 
BRANCH   8   9
ATOM      9  C   LIG d   1      -2.586  80.027 115.398  0.00  0.00     0.028 C 
ATOM     10  C   LIG d   1      -3.724  80.281 116.401  0.00  0.00     0.006 C 
ENDBRANCH   8   9
BRANCH   8  11
ATOM     11  C   LIG d   1      -1.530  78.162 114.225  0.00  0.00     0.028 C 
ATOM     12  C   LIG d   1      -2.407  78.774 113.122  0.00  0.00     0.006 C 
ENDBRANCH   8  11
ENDBRANCH   7   8
ENDBRANCH   1   7
BRANCH   6  13
ATOM     13  N   LIG d   1      -3.386  74.836 116.490  0.00  0.00    -0.311 N 
ATOM     14  C   LIG d   1      -4.053  74.799 115.337  0.00  0.00     0.210 C 
ATOM     15  C   LIG d   1      -5.403  74.076 115.394  0.00  0.00     0.109 C 
ATOM     16  O   LIG d   1      -3.641  75.269 114.266  0.00  0.00    -0.276 OA
ATOM     17  H   LIG d   1      -3.780  74.402 117.301  0.00  0.00     0.149 HD
ENDBRANCH   6  13
BRANCH   5  18
ATOM     18  N   LIG d   1      -0.729  73.383 116.894  0.00  0.00     0.381 N 
ATOM     19  H   LIG d   1      -0.447  72.736 117.603  0.00  0.00    -0.090 HD
ATOM     20  H   LIG d   1       0.045  73.525 116.270  0.00  0.00    -0.090 HD
ATOM     21  H   LIG d   1      -1.508  73.017 116.391  0.00  0.00    -0.090 HD
ENDBRANCH   5  18
BRANCH   3  22
ATOM     22  C   LIG d   1       0.967  77.364 118.946  0.00  0.00     0.382 C 
ATOM     23  O   LIG d   1       0.696  78.381 119.630  0.00  0.00    -0.241 OA
ATOM     24  O   LIG d   1       2.130  76.918 118.945  0.00  0.00    -0.241 OA
ENDBRANCH   3  22
TORSDOF 7
ENDMDL
