MODEL 1
REMARK VINA RESULT:      -5.6      0.000      0.000
REMARK  7 active torsions:
REMARK  status: ('A' for Active; 'I' for Inactive)
REMARK    1  A    between atoms: C_2  and  C_3 
REMARK    2  A    between atoms: C_3  and  O_6 
REMARK    3  A    between atoms: C_3  and  C_4 
REMARK    4  A    between atoms: C_7  and  O_6 
REMARK    5  A    between atoms: C_9  and  C_10 
REMARK    6  A    between atoms: N_15  and  C_14 
REMARK    7  A    between atoms: N_20  and  C_19 
REMARK       I    between atoms: C_22  and  N_20 
ROOT
ATOM      1  C   LIG d   1      -7.016  76.689 116.497  0.00  0.00     0.161 C 
ATOM      2  C   LIG d   1      -6.038  76.151 115.644  0.00  0.00     0.016 C 
ATOM      3  C   LIG d   1      -4.734  76.683 115.523  0.00  0.00     0.038 C 
ATOM      4  C   LIG d   1      -4.269  77.705 116.364  0.00  0.00     0.028 C 
ATOM      5  C   LIG d   1      -5.378  78.611 116.887  0.00  0.00    -0.047 C 
ATOM      6  C   LIG d   1      -6.493  77.735 117.503  0.00  0.00     0.091 C 
ENDROOT
BRANCH   1   7
ATOM      7  O   LIG d   1      -7.699  75.625 117.189  0.00  0.00    -0.368 OA
BRANCH   7   8
ATOM      8  C   LIG d   1      -8.335  74.627 116.354  0.00  0.00     0.119 C 
BRANCH   8   9
ATOM      9  C   LIG d   1      -9.859  74.780 116.528  0.00  0.00     0.028 C 
ATOM     10  C   LIG d   1     -10.234  76.028 117.344  0.00  0.00     0.006 C 
ENDBRANCH   8   9
BRANCH   8  11
ATOM     11  C   LIG d   1      -8.013  73.209 116.837  0.00  0.00     0.028 C 
ATOM     12  C   LIG d   1      -9.190  72.237 116.659  0.00  0.00     0.006 C 
ENDBRANCH   8  11
ENDBRANCH   7   8
ENDBRANCH   1   7
BRANCH   6  13
ATOM     13  N   LIG d   1      -7.656  78.538 117.964  0.00  0.00    -0.311 N 
ATOM     14  C   LIG d   1      -7.810  78.950 119.221  0.00  0.00     0.210 C 
ATOM     15  C   LIG d   1      -9.090  79.748 119.487  0.00  0.00     0.109 C 
ATOM     16  O   LIG d   1      -6.992  78.759 120.133  0.00  0.00    -0.276 OA
ATOM     17  H   LIG d   1      -8.352  78.765 117.281  0.00  0.00     0.149 HD
ENDBRANCH   6  13
BRANCH   5  18
ATOM     18  N   LIG d   1      -4.773  79.543 117.856  0.00  0.00     0.381 N 
ATOM     19  H   LIG d   1      -3.940  79.141 118.239  0.00  0.00    -0.090 HD
ATOM     20  H   LIG d   1      -5.422  79.698 118.608  0.00  0.00    -0.090 HD
ATOM     21  H   LIG d   1      -4.558  80.407 117.410  0.00  0.00    -0.090 HD
ENDBRANCH   5  18
BRANCH   3  22
ATOM     22  C   LIG d   1      -3.892  76.219 114.523  0.00  0.00     0.382 C 
ATOM     23  O   LIG d   1      -3.033  75.343 114.784  0.00  0.00    -0.241 OA
ATOM     24  O   LIG d   1      -3.952  76.696 113.374  0.00  0.00    -0.241 OA
ENDBRANCH   3  22
TORSDOF 7
ENDMDL
MODEL 2
REMARK VINA RESULT:      -5.4     13.259     15.606
REMARK  7 active torsions:
REMARK  status: ('A' for Active; 'I' for Inactive)
REMARK    1  A    between atoms: C_2  and  C_3 
REMARK    2  A    between atoms: C_3  and  O_6 
REMARK    3  A    between atoms: C_3  and  C_4 
REMARK    4  A    between atoms: C_7  and  O_6 
REMARK    5  A    between atoms: C_9  and  C_10 
REMARK    6  A    between atoms: N_15  and  C_14 
REMARK    7  A    between atoms: N_20  and  C_19 
REMARK       I    between atoms: C_22  and  N_20 
ROOT
ATOM      1  C   LIG d   1      -4.356  91.010 117.594  0.00  0.00     0.161 C 
ATOM      2  C   LIG d   1      -5.237  90.413 116.677  0.00  0.00     0.016 C 
ATOM      3  C   LIG d   1      -6.454  91.005 116.268  0.00  0.00     0.038 C 
ATOM      4  C   LIG d   1      -6.802  92.313 116.637  0.00  0.00     0.028 C 
ATOM      5  C   LIG d   1      -6.187  92.753 117.961  0.00  0.00    -0.047 C 
ATOM      6  C   LIG d   1      -4.666  92.485 117.921  0.00  0.00     0.091 C 
ENDROOT
BRANCH   1   7
ATOM      7  O   LIG d   1      -2.999  90.874 117.127  0.00  0.00    -0.368 OA
BRANCH   7   8
ATOM      8  C   LIG d   1      -2.096  90.148 117.996  0.00  0.00     0.119 C 
BRANCH   8   9
ATOM      9  C   LIG d   1      -0.664  90.380 117.475  0.00  0.00     0.028 C 
ATOM     10  C   LIG d   1       0.077  91.473 118.262  0.00  0.00     0.006 C 
ENDBRANCH   8   9
BRANCH   8  11
ATOM     11  C   LIG d   1      -2.323  88.636 117.898  0.00  0.00     0.028 C 
ATOM     12  C   LIG d   1      -2.769  88.013 119.230  0.00  0.00     0.006 C 
ENDBRANCH   8  11
ENDBRANCH   7   8
ENDBRANCH   1   7
BRANCH   6  13
ATOM     13  N   LIG d   1      -3.999  92.809 119.210  0.00  0.00    -0.311 N 
ATOM     14  C   LIG d   1      -2.889  93.541 119.297  0.00  0.00     0.210 C 
ATOM     15  C   LIG d   1      -2.356  93.739 120.719  0.00  0.00     0.109 C 
ATOM     16  O   LIG d   1      -2.314  94.071 118.335  0.00  0.00    -0.276 OA
ATOM     17  H   LIG d   1      -4.417  92.446 120.044  0.00  0.00     0.149 HD
ENDBRANCH   6  13
BRANCH   5  18
ATOM     18  N   LIG d   1      -6.519  94.177 118.155  0.00  0.00     0.381 N 
ATOM     19  H   LIG d   1      -6.922  94.311 119.061  0.00  0.00    -0.090 HD
ATOM     20  H   LIG d   1      -7.196  94.450 117.465  0.00  0.00    -0.090 HD
ATOM     21  H   LIG d   1      -5.698  94.734 118.064  0.00  0.00    -0.090 HD
ENDBRANCH   5  18
BRANCH   3  22
ATOM     22  C   LIG d   1      -7.356  90.271 115.513  0.00  0.00     0.382 C 
ATOM     23  O   LIG d   1      -7.481  90.501 114.286  0.00  0.00    -0.241 OA
ATOM     24  O   LIG d   1      -8.079  89.412 116.053  0.00  0.00    -0.241 OA
ENDBRANCH   3  22
TORSDOF 7
ENDMDL
MODEL 3
REMARK VINA RESULT:      -5.4      1.922      5.080
REMARK  7 active torsions:
REMARK  status: ('A' for Active; 'I' for Inactive)
REMARK    1  A    between atoms: C_2  and  C_3 
REMARK    2  A    between atoms: C_3  and  O_6 
REMARK    3  A    between atoms: C_3  and  C_4 
REMARK    4  A    between atoms: C_7  and  O_6 
REMARK    5  A    between atoms: C_9  and  C_10 
REMARK    6  A    between atoms: N_15  and  C_14 
REMARK    7  A    between atoms: N_20  and  C_19 
REMARK       I    between atoms: C_22  and  N_20 
ROOT
ATOM      1  C   LIG d   1      -7.641  77.806 118.003  0.00  0.00     0.161 C 
ATOM      2  C   LIG d   1      -8.781  78.533 118.384  0.00  0.00     0.016 C 
ATOM      3  C   LIG d   1      -8.732  79.865 118.855  0.00  0.00     0.038 C 
ATOM      4  C   LIG d   1      -7.548  80.616 118.834  0.00  0.00     0.028 C 
ATOM      5  C   LIG d   1      -6.288  79.763 118.934  0.00  0.00    -0.047 C 
ATOM      6  C   LIG d   1      -6.353  78.645 117.869  0.00  0.00     0.091 C 
ENDROOT
BRANCH   1   7
ATOM      7  O   LIG d   1      -7.903  77.091 116.779  0.00  0.00    -0.368 OA
BRANCH   7   8
ATOM      8  C   LIG d   1      -7.948  75.647 116.882  0.00  0.00     0.119 C 
BRANCH   8   9
ATOM      9  C   LIG d   1      -7.002  75.077 115.807  0.00  0.00     0.028 C 
ATOM     10  C   LIG d   1      -6.701  76.092 114.692  0.00  0.00     0.006 C 
ENDBRANCH   8   9
BRANCH   8  11
ATOM     11  C   LIG d   1      -9.337  75.106 116.527  0.00  0.00     0.028 C 
ATOM     12  C   LIG d   1      -9.456  73.588 116.738  0.00  0.00     0.006 C 
ENDBRANCH   8  11
ENDBRANCH   7   8
ENDBRANCH   1   7
BRANCH   6  13
ATOM     13  N   LIG d   1      -5.198  77.713 117.953  0.00  0.00    -0.311 N 
ATOM     14  C   LIG d   1      -4.288  77.585 116.989  0.00  0.00     0.210 C 
ATOM     15  C   LIG d   1      -3.190  76.554 117.270  0.00  0.00     0.109 C 
ATOM     16  O   LIG d   1      -4.266  78.251 115.943  0.00  0.00    -0.276 OA
ATOM     17  H   LIG d   1      -5.121  77.157 118.782  0.00  0.00     0.149 HD
ENDBRANCH   6  13
BRANCH   5  18
ATOM     18  N   LIG d   1      -5.128  80.658 118.762  0.00  0.00     0.381 N 
ATOM     19  H   LIG d   1      -5.442  81.602 118.653  0.00  0.00    -0.090 HD
ATOM     20  H   LIG d   1      -4.633  80.392 117.929  0.00  0.00    -0.090 HD
ATOM     21  H   LIG d   1      -4.525  80.591 119.552  0.00  0.00    -0.090 HD
ENDBRANCH   5  18
BRANCH   3  22
ATOM     22  C   LIG d   1      -9.871  80.447 119.391  0.00  0.00     0.382 C 
ATOM     23  O   LIG d   1     -10.566  79.814 120.223  0.00  0.00    -0.241 OA
ATOM     24  O   LIG d   1     -10.238  81.578 119.020  0.00  0.00    -0.241 OA
ENDBRANCH   3  22
TORSDOF 7
ENDMDL
MODEL 4
REMARK VINA RESULT:      -5.2      2.306      5.789
REMARK  7 active torsions:
REMARK  status: ('A' for Active; 'I' for Inactive)
REMARK    1  A    between atoms: C_2  and  C_3 
REMARK    2  A    between atoms: C_3  and  O_6 
REMARK    3  A    between atoms: C_3  and  C_4 
REMARK    4  A    between atoms: C_7  and  O_6 
REMARK    5  A    between atoms: C_9  and  C_10 
REMARK    6  A    between atoms: N_15  and  C_14 
REMARK    7  A    between atoms: N_20  and  C_19 
REMARK       I    between atoms: C_22  and  N_20 
ROOT
ATOM      1  C   LIG d   1      -6.589  77.910 117.382  0.00  0.00     0.161 C 
ATOM      2  C   LIG d   1      -7.841  77.303 117.571  0.00  0.00     0.016 C 
ATOM      3  C   LIG d   1      -8.239  76.117 116.912  0.00  0.00     0.038 C 
ATOM      4  C   LIG d   1      -7.348  75.370 116.127  0.00  0.00     0.028 C 
ATOM      5  C   LIG d   1      -6.237  76.210 115.506  0.00  0.00    -0.047 C 
ATOM      6  C   LIG d   1      -5.562  77.049 116.615  0.00  0.00     0.091 C 
ENDROOT
BRANCH   1   7
ATOM      7  O   LIG d   1      -6.048  78.321 118.653  0.00  0.00    -0.368 OA
BRANCH   7   8
ATOM      8  C   LIG d   1      -6.211  79.720 118.992  0.00  0.00     0.119 C 
BRANCH   8   9
ATOM      9  C   LIG d   1      -6.290  80.511 117.672  0.00  0.00     0.028 C 
ATOM     10  C   LIG d   1      -7.265  81.697 117.755  0.00  0.00     0.006 C 
ENDBRANCH   8   9
BRANCH   8  11
ATOM     11  C   LIG d   1      -4.978  80.265 119.718  0.00  0.00     0.028 C 
ATOM     12  C   LIG d   1      -3.661  79.696 119.165  0.00  0.00     0.006 C 
ENDBRANCH   8  11
ENDBRANCH   7   8
ENDBRANCH   1   7
BRANCH   6  13
ATOM     13  N   LIG d   1      -4.520  77.963 116.080  0.00  0.00    -0.311 N 
ATOM     14  C   LIG d   1      -3.225  77.652 116.036  0.00  0.00     0.210 C 
ATOM     15  C   LIG d   1      -2.317  78.745 115.464  0.00  0.00     0.109 C 
ATOM     16  O   LIG d   1      -2.747  76.563 116.386  0.00  0.00    -0.276 OA
ATOM     17  H   LIG d   1      -4.824  78.856 115.746  0.00  0.00     0.149 HD
ENDBRANCH   6  13
BRANCH   5  18
ATOM     18  N   LIG d   1      -5.305  75.288 114.831  0.00  0.00     0.381 N 
ATOM     19  H   LIG d   1      -4.650  75.809 114.283  0.00  0.00    -0.090 HD
ATOM     20  H   LIG d   1      -5.828  74.691 114.214  0.00  0.00    -0.090 HD
ATOM     21  H   LIG d   1      -4.821  74.737 115.506  0.00  0.00    -0.090 HD
ENDBRANCH   5  18
BRANCH   3  22
ATOM     22  C   LIG d   1      -9.555  75.689 117.002  0.00  0.00     0.382 C 
ATOM     23  O   LIG d   1      -9.884  74.572 116.534  0.00  0.00    -0.241 OA
ATOM     24  O   LIG d   1     -10.425  76.424 117.506  0.00  0.00    -0.241 OA
ENDBRANCH   3  22
TORSDOF 7
ENDMDL
MODEL 5
REMARK VINA RESULT:      -5.2      3.105      5.018
REMARK  7 active torsions:
REMARK  status: ('A' for Active; 'I' for Inactive)
REMARK    1  A    between atoms: C_2  and  C_3 
REMARK    2  A    between atoms: C_3  and  O_6 
REMARK    3  A    between atoms: C_3  and  C_4 
REMARK    4  A    between atoms: C_7  and  O_6 
REMARK    5  A    between atoms: C_9  and  C_10 
REMARK    6  A    between atoms: N_15  and  C_14 
REMARK    7  A    between atoms: N_20  and  C_19 
REMARK       I    between atoms: C_22  and  N_20 
ROOT
ATOM      1  C   LIG d   1      -3.752  77.281 116.926  0.00  0.00     0.161 C 
ATOM      2  C   LIG d   1      -4.515  76.892 115.813  0.00  0.00     0.016 C 
ATOM      3  C   LIG d   1      -4.391  75.630 115.187  0.00  0.00     0.038 C 
ATOM      4  C   LIG d   1      -3.597  74.608 115.729  0.00  0.00     0.028 C 
ATOM      5  C   LIG d   1      -2.428  75.126 116.561  0.00  0.00    -0.047 C 
ATOM      6  C   LIG d   1      -2.961  76.139 117.599  0.00  0.00     0.091 C 
ENDROOT
BRANCH   1   7
ATOM      7  O   LIG d   1      -4.595  77.942 117.890  0.00  0.00    -0.368 OA
BRANCH   7   8
ATOM      8  C   LIG d   1      -5.804  78.548 117.370  0.00  0.00     0.119 C 
BRANCH   8   9
ATOM      9  C   LIG d   1      -5.638  80.077 117.477  0.00  0.00     0.028 C 
ATOM     10  C   LIG d   1      -6.950  80.784 117.853  0.00  0.00     0.006 C 
ENDBRANCH   8   9
BRANCH   8  11
ATOM     11  C   LIG d   1      -7.017  78.210 118.241  0.00  0.00     0.028 C 
ATOM     12  C   LIG d   1      -7.813  77.006 117.712  0.00  0.00     0.006 C 
ENDBRANCH   8  11
ENDBRANCH   7   8
ENDBRANCH   1   7
BRANCH   6  13
ATOM     13  N   LIG d   1      -1.871  76.757 118.399  0.00  0.00    -0.311 N 
ATOM     14  C   LIG d   1      -1.425  76.249 119.546  0.00  0.00     0.210 C 
ATOM     15  C   LIG d   1      -0.309  77.054 120.219  0.00  0.00     0.109 C 
ATOM     16  O   LIG d   1      -1.824  75.191 120.053  0.00  0.00    -0.276 OA
ATOM     17  H   LIG d   1      -1.468  77.603 118.044  0.00  0.00     0.149 HD
ENDBRANCH   6  13
BRANCH   5  18
ATOM     18  N   LIG d   1      -1.769  73.959 117.177  0.00  0.00     0.381 N 
ATOM     19  H   LIG d   1      -1.674  73.227 116.501  0.00  0.00    -0.090 HD
ATOM     20  H   LIG d   1      -2.342  73.621 117.929  0.00  0.00    -0.090 HD
ATOM     21  H   LIG d   1      -0.872  74.219 117.524  0.00  0.00    -0.090 HD
ENDBRANCH   5  18
BRANCH   3  22
ATOM     22  C   LIG d   1      -5.036  75.394 113.983  0.00  0.00     0.382 C 
ATOM     23  O   LIG d   1      -5.493  76.355 113.318  0.00  0.00    -0.241 OA
ATOM     24  O   LIG d   1      -5.206  74.230 113.574  0.00  0.00    -0.241 OA
ENDBRANCH   3  22
TORSDOF 7
ENDMDL
MODEL 6
REMARK VINA RESULT:      -5.0     12.864     15.390
REMARK  7 active torsions:
REMARK  status: ('A' for Active; 'I' for Inactive)
REMARK    1  A    between atoms: C_2  and  C_3 
REMARK    2  A    between atoms: C_3  and  O_6 
REMARK    3  A    between atoms: C_3  and  C_4 
REMARK    4  A    between atoms: C_7  and  O_6 
REMARK    5  A    between atoms: C_9  and  C_10 
REMARK    6  A    between atoms: N_15  and  C_14 
REMARK    7  A    between atoms: N_20  and  C_19 
REMARK       I    between atoms: C_22  and  N_20 
ROOT
ATOM      1  C   LIG d   1      -4.436  90.865 117.268  0.00  0.00     0.161 C 
ATOM      2  C   LIG d   1      -3.354  91.687 117.626  0.00  0.00     0.016 C 
ATOM      3  C   LIG d   1      -3.498  92.884 118.363  0.00  0.00     0.038 C 
ATOM      4  C   LIG d   1      -4.724  93.265 118.928  0.00  0.00     0.028 C 
ATOM      5  C   LIG d   1      -5.933  92.730 118.167  0.00  0.00    -0.047 C 
ATOM      6  C   LIG d   1      -5.767  91.206 117.970  0.00  0.00     0.091 C 
ENDROOT
BRANCH   1   7
ATOM      7  O   LIG d   1      -4.093  89.482 117.489  0.00  0.00    -0.368 OA
BRANCH   7   8
ATOM      8  C   LIG d   1      -2.914  89.239 118.295  0.00  0.00     0.119 C 
BRANCH   8   9
ATOM      9  C   LIG d   1      -2.128  88.091 117.632  0.00  0.00     0.028 C 
ATOM     10  C   LIG d   1      -1.524  87.122 118.662  0.00  0.00     0.006 C 
ENDBRANCH   8   9
BRANCH   8  11
ATOM     11  C   LIG d   1      -3.287  88.723 119.688  0.00  0.00     0.028 C 
ATOM     12  C   LIG d   1      -3.120  89.789 120.783  0.00  0.00     0.006 C 
ENDBRANCH   8  11
ENDBRANCH   7   8
ENDBRANCH   1   7
BRANCH   6  13
ATOM     13  N   LIG d   1      -6.866  90.616 117.161  0.00  0.00    -0.311 N 
ATOM     14  C   LIG d   1      -7.148  91.000 115.917  0.00  0.00     0.210 C 
ATOM     15  C   LIG d   1      -8.333  90.277 115.271  0.00  0.00     0.109 C 
ATOM     16  O   LIG d   1      -6.508  91.847 115.276  0.00  0.00    -0.276 OA
ATOM     17  H   LIG d   1      -7.416  89.900 117.593  0.00  0.00     0.149 HD
ENDBRANCH   6  13
BRANCH   5  18
ATOM     18  N   LIG d   1      -7.138  93.085 118.940  0.00  0.00     0.381 N 
ATOM     19  H   LIG d   1      -7.067  94.029 119.264  0.00  0.00    -0.090 HD
ATOM     20  H   LIG d   1      -7.202  92.481 119.740  0.00  0.00    -0.090 HD
ATOM     21  H   LIG d   1      -7.950  92.983 118.371  0.00  0.00    -0.090 HD
ENDBRANCH   5  18
BRANCH   3  22
ATOM     22  C   LIG d   1      -2.413  93.735 118.509  0.00  0.00     0.382 C 
ATOM     23  O   LIG d   1      -2.296  94.430 119.548  0.00  0.00    -0.241 OA
ATOM     24  O   LIG d   1      -1.573  93.851 117.597  0.00  0.00    -0.241 OA
ENDBRANCH   3  22
TORSDOF 7
ENDMDL
MODEL 7
REMARK VINA RESULT:      -5.0      1.982      2.708
REMARK  7 active torsions:
REMARK  status: ('A' for Active; 'I' for Inactive)
REMARK    1  A    between atoms: C_2  and  C_3 
REMARK    2  A    between atoms: C_3  and  O_6 
REMARK    3  A    between atoms: C_3  and  C_4 
REMARK    4  A    between atoms: C_7  and  O_6 
REMARK    5  A    between atoms: C_9  and  C_10 
REMARK    6  A    between atoms: N_15  and  C_14 
REMARK    7  A    between atoms: N_20  and  C_19 
REMARK       I    between atoms: C_22  and  N_20 
ROOT
ATOM      1  C   LIG d   1      -5.574  77.998 116.814  0.00  0.00     0.161 C 
ATOM      2  C   LIG d   1      -4.197  77.945 116.544  0.00  0.00     0.016 C 
ATOM      3  C   LIG d   1      -3.239  78.724 117.233  0.00  0.00     0.038 C 
ATOM      4  C   LIG d   1      -3.580  79.503 118.349  0.00  0.00     0.028 C 
ATOM      5  C   LIG d   1      -5.029  79.976 118.337  0.00  0.00    -0.047 C 
ATOM      6  C   LIG d   1      -5.953  78.758 118.102  0.00  0.00     0.091 C 
ENDROOT
BRANCH   1   7
ATOM      7  O   LIG d   1      -6.118  76.663 116.842  0.00  0.00    -0.368 OA
BRANCH   7   8
ATOM      8  C   LIG d   1      -6.994  76.308 115.743  0.00  0.00     0.119 C 
BRANCH   8   9
ATOM      9  C   LIG d   1      -8.006  75.275 116.274  0.00  0.00     0.028 C 
ATOM     10  C   LIG d   1      -9.075  75.911 117.179  0.00  0.00     0.006 C 
ENDBRANCH   8   9
BRANCH   8  11
ATOM     11  C   LIG d   1      -6.226  75.590 114.630  0.00  0.00     0.028 C 
ATOM     12  C   LIG d   1      -5.330  74.458 115.158  0.00  0.00     0.006 C 
ENDBRANCH   8  11
ENDBRANCH   7   8
ENDBRANCH   1   7
BRANCH   6  13
ATOM     13  N   LIG d   1      -7.384  79.145 117.992  0.00  0.00    -0.311 N 
ATOM     14  C   LIG d   1      -8.223  79.149 119.026  0.00  0.00     0.210 C 
ATOM     15  C   LIG d   1      -9.660  79.561 118.690  0.00  0.00     0.109 C 
ATOM     16  O   LIG d   1      -7.907  78.882 120.195  0.00  0.00    -0.276 OA
ATOM     17  H   LIG d   1      -7.717  79.407 117.085  0.00  0.00     0.149 HD
ENDBRANCH   6  13
BRANCH   5  18
ATOM     18  N   LIG d   1      -5.287  80.657 119.619  0.00  0.00     0.381 N 
ATOM     19  H   LIG d   1      -6.148  80.331 120.010  0.00  0.00    -0.090 HD
ATOM     20  H   LIG d   1      -5.370  81.645 119.452  0.00  0.00    -0.090 HD
ATOM     21  H   LIG d   1      -4.539  80.483 120.254  0.00  0.00    -0.090 HD
ENDBRANCH   5  18
BRANCH   3  22
ATOM     22  C   LIG d   1      -1.928  78.759 116.781  0.00  0.00     0.382 C 
ATOM     23  O   LIG d   1      -1.444  77.768 116.184  0.00  0.00    -0.241 OA
ATOM     24  O   LIG d   1      -1.210  79.753 117.002  0.00  0.00    -0.241 OA
ENDBRANCH   3  22
TORSDOF 7
ENDMDL
MODEL 8
REMARK VINA RESULT:      -4.9     12.702     16.466
REMARK  7 active torsions:
REMARK  status: ('A' for Active; 'I' for Inactive)
REMARK    1  A    between atoms: C_2  and  C_3 
REMARK    2  A    between atoms: C_3  and  O_6 
REMARK    3  A    between atoms: C_3  and  C_4 
REMARK    4  A    between atoms: C_7  and  O_6 
REMARK    5  A    between atoms: C_9  and  C_10 
REMARK    6  A    between atoms: N_15  and  C_14 
REMARK    7  A    between atoms: N_20  and  C_19 
REMARK       I    between atoms: C_22  and  N_20 
ROOT
ATOM      1  C   LIG d   1     -17.761  64.830 117.389  0.00  0.00     0.161 C 
ATOM      2  C   LIG d   1     -18.344  63.579 117.128  0.00  0.00     0.016 C 
ATOM      3  C   LIG d   1     -18.410  63.005 115.838  0.00  0.00     0.038 C 
ATOM      4  C   LIG d   1     -17.758  63.580 114.736  0.00  0.00     0.028 C 
ATOM      5  C   LIG d   1     -17.591  65.091 114.853  0.00  0.00    -0.047 C 
ATOM      6  C   LIG d   1     -16.947  65.421 116.219  0.00  0.00     0.091 C 
ENDROOT
BRANCH   1   7
ATOM      7  O   LIG d   1     -16.948  64.753 118.576  0.00  0.00    -0.368 OA
BRANCH   7   8
ATOM      8  C   LIG d   1     -15.532  64.527 118.365  0.00  0.00     0.119 C 
BRANCH   8   9
ATOM      9  C   LIG d   1     -15.203  63.120 118.899  0.00  0.00     0.028 C 
ATOM     10  C   LIG d   1     -16.152  62.683 120.028  0.00  0.00     0.006 C 
ENDBRANCH   8   9
BRANCH   8  11
ATOM     11  C   LIG d   1     -14.684  65.487 119.204  0.00  0.00     0.028 C 
ATOM     12  C   LIG d   1     -15.517  66.597 119.865  0.00  0.00     0.006 C 
ENDBRANCH   8  11
ENDBRANCH   7   8
ENDBRANCH   1   7
BRANCH   6  13
ATOM     13  N   LIG d   1     -16.825  66.884 116.449  0.00  0.00    -0.311 N 
ATOM     14  C   LIG d   1     -15.701  67.568 116.243  0.00  0.00     0.210 C 
ATOM     15  C   LIG d   1     -15.786  69.064 116.562  0.00  0.00     0.109 C 
ATOM     16  O   LIG d   1     -14.650  67.083 115.796  0.00  0.00    -0.276 OA
ATOM     17  H   LIG d   1     -17.639  67.363 116.783  0.00  0.00     0.149 HD
ENDBRANCH   6  13
BRANCH   5  18
ATOM     18  N   LIG d   1     -16.777  65.539 113.707  0.00  0.00     0.381 N 
ATOM     19  H   LIG d   1     -17.374  65.880 112.980  0.00  0.00    -0.090 HD
ATOM     20  H   LIG d   1     -16.261  64.755 113.349  0.00  0.00    -0.090 HD
ATOM     21  H   LIG d   1     -16.149  66.257 113.994  0.00  0.00    -0.090 HD
ENDBRANCH   5  18
BRANCH   3  22
ATOM     22  C   LIG d   1     -19.168  61.862 115.632  0.00  0.00     0.382 C 
ATOM     23  O   LIG d   1     -19.525  61.162 116.610  0.00  0.00    -0.241 OA
ATOM     24  O   LIG d   1     -19.461  61.498 114.477  0.00  0.00    -0.241 OA
ENDBRANCH   3  22
TORSDOF 7
ENDMDL
MODEL 9
REMARK VINA RESULT:      -4.9     12.459     16.173
REMARK  7 active torsions:
REMARK  status: ('A' for Active; 'I' for Inactive)
REMARK    1  A    between atoms: C_2  and  C_3 
REMARK    2  A    between atoms: C_3  and  O_6 
REMARK    3  A    between atoms: C_3  and  C_4 
REMARK    4  A    between atoms: C_7  and  O_6 
REMARK    5  A    between atoms: C_9  and  C_10 
REMARK    6  A    between atoms: N_15  and  C_14 
REMARK    7  A    between atoms: N_20  and  C_19 
REMARK       I    between atoms: C_22  and  N_20 
ROOT
ATOM      1  C   LIG d   1     -16.363  64.652 117.764  0.00  0.00     0.161 C 
ATOM      2  C   LIG d   1     -15.593  65.757 118.163  0.00  0.00     0.016 C 
ATOM      3  C   LIG d   1     -15.188  66.783 117.279  0.00  0.00     0.038 C 
ATOM      4  C   LIG d   1     -15.658  66.852 115.958  0.00  0.00     0.028 C 
ATOM      5  C   LIG d   1     -16.026  65.492 115.375  0.00  0.00    -0.047 C 
ATOM      6  C   LIG d   1     -16.977  64.767 116.354  0.00  0.00     0.091 C 
ENDROOT
BRANCH   1   7
ATOM      7  O   LIG d   1     -17.393  64.396 118.740  0.00  0.00    -0.368 OA
BRANCH   7   8
ATOM      8  C   LIG d   1     -17.189  63.245 119.596  0.00  0.00     0.119 C 
BRANCH   8   9
ATOM      9  C   LIG d   1     -15.830  62.623 119.219  0.00  0.00     0.028 C 
ATOM     10  C   LIG d   1     -15.161  61.912 120.407  0.00  0.00     0.006 C 
ENDBRANCH   8   9
BRANCH   8  11
ATOM     11  C   LIG d   1     -18.226  62.153 119.317  0.00  0.00     0.028 C 
ATOM     12  C   LIG d   1     -19.632  62.718 119.060  0.00  0.00     0.006 C 
ENDBRANCH   8  11
ENDBRANCH   7   8
ENDBRANCH   1   7
BRANCH   6  13
ATOM     13  N   LIG d   1     -17.320  63.394 115.899  0.00  0.00    -0.311 N 
ATOM     14  C   LIG d   1     -18.555  63.017 115.571  0.00  0.00     0.210 C 
ATOM     15  C   LIG d   1     -18.692  61.551 115.148  0.00  0.00     0.109 C 
ATOM     16  O   LIG d   1     -19.543  63.765 115.560  0.00  0.00    -0.276 OA
ATOM     17  H   LIG d   1     -16.572  62.730 115.849  0.00  0.00     0.149 HD
ENDBRANCH   6  13
BRANCH   5  18
ATOM     18  N   LIG d   1     -16.628  65.724 114.048  0.00  0.00     0.381 N 
ATOM     19  H   LIG d   1     -16.798  64.848 113.596  0.00  0.00    -0.090 HD
ATOM     20  H   LIG d   1     -15.982  66.249 113.486  0.00  0.00    -0.090 HD
ATOM     21  H   LIG d   1     -17.481  66.228 114.145  0.00  0.00    -0.090 HD
ENDBRANCH   5  18
BRANCH   3  22
ATOM     22  C   LIG d   1     -14.272  67.734 117.702  0.00  0.00     0.382 C 
ATOM     23  O   LIG d   1     -13.253  67.974 117.011  0.00  0.00    -0.241 OA
ATOM     24  O   LIG d   1     -14.430  68.322 118.789  0.00  0.00    -0.241 OA
ENDBRANCH   3  22
TORSDOF 7
ENDMDL
