MODEL 1
REMARK VINA RESULT:      -6.3      0.000      0.000
REMARK  7 active torsions:
REMARK  status: ('A' for Active; 'I' for Inactive)
REMARK    1  A    between atoms: C_2  and  C_3 
REMARK    2  A    between atoms: C_3  and  O_6 
REMARK    3  A    between atoms: C_3  and  C_4 
REMARK    4  A    between atoms: C_7  and  O_6 
REMARK    5  A    between atoms: C_9  and  C_10 
REMARK    6  A    between atoms: N_15  and  C_14 
REMARK    7  A    between atoms: N_20  and  C_19 
REMARK       I    between atoms: C_22  and  N_20 
ROOT
ATOM      1  C   LIG d   1      -7.204  75.350 117.408  0.00  0.00     0.161 C 
ATOM      2  C   LIG d   1      -6.387  76.230 116.680  0.00  0.00     0.016 C 
ATOM      3  C   LIG d   1      -5.480  75.804 115.682  0.00  0.00     0.038 C 
ATOM      4  C   LIG d   1      -5.438  74.475 115.237  0.00  0.00     0.028 C 
ATOM      5  C   LIG d   1      -5.884  73.468 116.292  0.00  0.00    -0.047 C 
ATOM      6  C   LIG d   1      -7.253  73.909 116.859  0.00  0.00     0.091 C 
ENDROOT
BRANCH   1   7
ATOM      7  O   LIG d   1      -8.536  75.892 117.512  0.00  0.00    -0.368 OA
BRANCH   7   8
ATOM      8  C   LIG d   1      -8.765  76.816 118.604  0.00  0.00     0.119 C 
BRANCH   8   9
ATOM      9  C   LIG d   1      -9.021  75.978 119.872  0.00  0.00     0.028 C 
ATOM     10  C   LIG d   1      -8.277  76.530 121.100  0.00  0.00     0.006 C 
ENDBRANCH   8   9
BRANCH   8  11
ATOM     11  C   LIG d   1     -10.046  77.627 118.389  0.00  0.00     0.028 C 
ATOM     12  C   LIG d   1     -10.021  78.983 119.112  0.00  0.00     0.006 C 
ENDBRANCH   8  11
ENDBRANCH   7   8
ENDBRANCH   1   7
BRANCH   6  13
ATOM     13  N   LIG d   1      -7.722  73.024 117.958  0.00  0.00    -0.311 N 
ATOM     14  C   LIG d   1      -8.488  71.952 117.760  0.00  0.00     0.210 C 
ATOM     15  C   LIG d   1      -8.875  71.191 119.031  0.00  0.00     0.109 C 
ATOM     16  O   LIG d   1      -8.855  71.541 116.649  0.00  0.00    -0.276 OA
ATOM     17  H   LIG d   1      -7.445  73.266 118.889  0.00  0.00     0.149 HD
ENDBRANCH   6  13
BRANCH   5  18
ATOM     18  N   LIG d   1      -5.924  72.140 115.652  0.00  0.00     0.381 N 
ATOM     19  H   LIG d   1      -6.212  71.451 116.319  0.00  0.00    -0.090 HD
ATOM     20  H   LIG d   1      -5.000  71.904 115.335  0.00  0.00    -0.090 HD
ATOM     21  H   LIG d   1      -6.555  72.151 114.882  0.00  0.00    -0.090 HD
ENDBRANCH   5  18
BRANCH   3  22
ATOM     22  C   LIG d   1      -4.574  76.707 115.147  0.00  0.00     0.382 C 
ATOM     23  O   LIG d   1      -4.249  77.729 115.797  0.00  0.00    -0.241 OA
ATOM     24  O   LIG d   1      -4.111  76.535 114.003  0.00  0.00    -0.241 OA
ENDBRANCH   3  22
TORSDOF 7
ENDMDL
MODEL 2
REMARK VINA RESULT:      -6.1      2.362      5.833
REMARK  7 active torsions:
REMARK  status: ('A' for Active; 'I' for Inactive)
REMARK    1  A    between atoms: C_2  and  C_3 
REMARK    2  A    between atoms: C_3  and  O_6 
REMARK    3  A    between atoms: C_3  and  C_4 
REMARK    4  A    between atoms: C_7  and  O_6 
REMARK    5  A    between atoms: C_9  and  C_10 
REMARK    6  A    between atoms: N_15  and  C_14 
REMARK    7  A    between atoms: N_20  and  C_19 
REMARK       I    between atoms: C_22  and  N_20 
ROOT
ATOM      1  C   LIG d   1      -7.543  75.534 117.984  0.00  0.00     0.161 C 
ATOM      2  C   LIG d   1      -8.733  76.050 118.524  0.00  0.00     0.016 C 
ATOM      3  C   LIG d   1      -9.019  77.432 118.595  0.00  0.00     0.038 C 
ATOM      4  C   LIG d   1      -8.195  78.392 117.989  0.00  0.00     0.028 C 
ATOM      5  C   LIG d   1      -6.738  77.957 117.877  0.00  0.00    -0.047 C 
ATOM      6  C   LIG d   1      -6.682  76.560 117.218  0.00  0.00     0.091 C 
ENDROOT
BRANCH   1   7
ATOM      7  O   LIG d   1      -7.839  74.401 117.144  0.00  0.00    -0.368 OA
BRANCH   7   8
ATOM      8  C   LIG d   1      -7.502  73.100 117.685  0.00  0.00     0.119 C 
BRANCH   8   9
ATOM      9  C   LIG d   1      -7.018  72.222 116.515  0.00  0.00     0.028 C 
ATOM     10  C   LIG d   1      -5.792  72.817 115.803  0.00  0.00     0.006 C 
ENDBRANCH   8   9
BRANCH   8  11
ATOM     11  C   LIG d   1      -8.740  72.389 118.240  0.00  0.00     0.028 C 
ATOM     12  C   LIG d   1      -8.933  70.983 117.653  0.00  0.00     0.006 C 
ENDBRANCH   8  11
ENDBRANCH   7   8
ENDBRANCH   1   7
BRANCH   6  13
ATOM     13  N   LIG d   1      -5.298  76.022 117.147  0.00  0.00    -0.311 N 
ATOM     14  C   LIG d   1      -4.493  76.207 116.102  0.00  0.00     0.210 C 
ATOM     15  C   LIG d   1      -3.114  75.551 116.225  0.00  0.00     0.109 C 
ATOM     16  O   LIG d   1      -4.777  76.880 115.100  0.00  0.00    -0.276 OA
ATOM     17  H   LIG d   1      -4.975  75.490 117.931  0.00  0.00     0.149 HD
ENDBRANCH   6  13
BRANCH   5  18
ATOM     18  N   LIG d   1      -6.022  78.990 117.105  0.00  0.00     0.381 N 
ATOM     19  H   LIG d   1      -5.036  78.896 117.248  0.00  0.00    -0.090 HD
ATOM     20  H   LIG d   1      -6.304  79.896 117.436  0.00  0.00    -0.090 HD
ATOM     21  H   LIG d   1      -6.235  78.900 116.136  0.00  0.00    -0.090 HD
ENDBRANCH   5  18
BRANCH   3  22
ATOM     22  C   LIG d   1     -10.122  77.869 119.314  0.00  0.00     0.382 C 
ATOM     23  O   LIG d   1     -10.631  77.131 120.191  0.00  0.00    -0.241 OA
ATOM     24  O   LIG d   1     -10.640  78.974 119.065  0.00  0.00    -0.241 OA
ENDBRANCH   3  22
TORSDOF 7
ENDMDL
MODEL 3
REMARK VINA RESULT:      -5.6     16.437     18.646
REMARK  7 active torsions:
REMARK  status: ('A' for Active; 'I' for Inactive)
REMARK    1  A    between atoms: C_2  and  C_3 
REMARK    2  A    between atoms: C_3  and  O_6 
REMARK    3  A    between atoms: C_3  and  C_4 
REMARK    4  A    between atoms: C_7  and  O_6 
REMARK    5  A    between atoms: C_9  and  C_10 
REMARK    6  A    between atoms: N_15  and  C_14 
REMARK    7  A    between atoms: N_20  and  C_19 
REMARK       I    between atoms: C_22  and  N_20 
ROOT
ATOM      1  C   LIG d   1      -5.476  92.538 118.094  0.00  0.00     0.161 C 
ATOM      2  C   LIG d   1      -5.510  91.705 116.964  0.00  0.00     0.016 C 
ATOM      3  C   LIG d   1      -6.541  91.746 115.997  0.00  0.00     0.038 C 
ATOM      4  C   LIG d   1      -7.536  92.734 116.015  0.00  0.00     0.028 C 
ATOM      5  C   LIG d   1      -7.826  93.276 117.411  0.00  0.00    -0.047 C 
ATOM      6  C   LIG d   1      -6.494  93.698 118.072  0.00  0.00     0.091 C 
ENDROOT
BRANCH   1   7
ATOM      7  O   LIG d   1      -4.141  93.047 118.286  0.00  0.00    -0.368 OA
BRANCH   7   8
ATOM      8  C   LIG d   1      -3.240  92.200 119.041  0.00  0.00     0.119 C 
BRANCH   8   9
ATOM      9  C   LIG d   1      -2.696  93.036 120.216  0.00  0.00     0.028 C 
ATOM     10  C   LIG d   1      -1.285  93.584 119.943  0.00  0.00     0.006 C 
ENDBRANCH   8   9
BRANCH   8  11
ATOM     11  C   LIG d   1      -2.010  91.817 118.213  0.00  0.00     0.028 C 
ATOM     12  C   LIG d   1      -2.065  90.369 117.700  0.00  0.00     0.006 C 
ENDBRANCH   8  11
ENDBRANCH   7   8
ENDBRANCH   1   7
BRANCH   6  13
ATOM     13  N   LIG d   1      -6.678  94.161 119.472  0.00  0.00    -0.311 N 
ATOM     14  C   LIG d   1      -6.892  95.434 119.802  0.00  0.00     0.210 C 
ATOM     15  C   LIG d   1      -7.034  95.698 121.304  0.00  0.00     0.109 C 
ATOM     16  O   LIG d   1      -7.010  96.364 118.990  0.00  0.00    -0.276 OA
ATOM     17  H   LIG d   1      -6.628  93.467 120.193  0.00  0.00     0.149 HD
ENDBRANCH   6  13
BRANCH   5  18
ATOM     18  N   LIG d   1      -8.779  94.392 117.267  0.00  0.00     0.381 N 
ATOM     19  H   LIG d   1      -8.596  94.886 116.417  0.00  0.00    -0.090 HD
ATOM     20  H   LIG d   1      -8.654  95.028 118.035  0.00  0.00    -0.090 HD
ATOM     21  H   LIG d   1      -9.713  94.044 117.263  0.00  0.00    -0.090 HD
ENDBRANCH   5  18
BRANCH   3  22
ATOM     22  C   LIG d   1      -6.605  90.765 115.019  0.00  0.00     0.382 C 
ATOM     23  O   LIG d   1      -5.811  89.794 115.051  0.00  0.00    -0.241 OA
ATOM     24  O   LIG d   1      -7.418  90.862 114.080  0.00  0.00    -0.241 OA
ENDBRANCH   3  22
TORSDOF 7
ENDMDL
MODEL 4
REMARK VINA RESULT:      -5.6      3.259      6.533
REMARK  7 active torsions:
REMARK  status: ('A' for Active; 'I' for Inactive)
REMARK    1  A    between atoms: C_2  and  C_3 
REMARK    2  A    between atoms: C_3  and  O_6 
REMARK    3  A    between atoms: C_3  and  C_4 
REMARK    4  A    between atoms: C_7  and  O_6 
REMARK    5  A    between atoms: C_9  and  C_10 
REMARK    6  A    between atoms: N_15  and  C_14 
REMARK    7  A    between atoms: N_20  and  C_19 
REMARK       I    between atoms: C_22  and  N_20 
ROOT
ATOM      1  C   LIG d   1      -6.475  77.329 118.298  0.00  0.00     0.161 C 
ATOM      2  C   LIG d   1      -7.862  77.302 118.516  0.00  0.00     0.016 C 
ATOM      3  C   LIG d   1      -8.692  78.440 118.392  0.00  0.00     0.038 C 
ATOM      4  C   LIG d   1      -8.210  79.657 117.889  0.00  0.00     0.028 C 
ATOM      5  C   LIG d   1      -6.720  79.868 118.136  0.00  0.00    -0.047 C 
ATOM      6  C   LIG d   1      -5.949  78.623 117.641  0.00  0.00     0.091 C 
ENDROOT
BRANCH   1   7
ATOM      7  O   LIG d   1      -6.079  76.179 117.525  0.00  0.00    -0.368 OA
BRANCH   7   8
ATOM      8  C   LIG d   1      -7.052  75.686 116.572  0.00  0.00     0.119 C 
BRANCH   8   9
ATOM      9  C   LIG d   1      -7.079  74.150 116.689  0.00  0.00     0.028 C 
ATOM     10  C   LIG d   1      -8.304  73.643 117.469  0.00  0.00     0.006 C 
ENDBRANCH   8   9
BRANCH   8  11
ATOM     11  C   LIG d   1      -6.616  75.975 115.132  0.00  0.00     0.028 C 
ATOM     12  C   LIG d   1      -5.090  75.944 114.953  0.00  0.00     0.006 C 
ENDBRANCH   8  11
ENDBRANCH   7   8
ENDBRANCH   1   7
BRANCH   6  13
ATOM     13  N   LIG d   1      -4.492  78.710 117.922  0.00  0.00    -0.311 N 
ATOM     14  C   LIG d   1      -3.598  79.135 117.031  0.00  0.00     0.210 C 
ATOM     15  C   LIG d   1      -2.146  79.127 117.519  0.00  0.00     0.109 C 
ATOM     16  O   LIG d   1      -3.873  79.547 115.895  0.00  0.00    -0.276 OA
ATOM     17  H   LIG d   1      -4.185  78.424 118.831  0.00  0.00     0.149 HD
ENDBRANCH   6  13
BRANCH   5  18
ATOM     18  N   LIG d   1      -6.324  81.107 117.442  0.00  0.00     0.381 N 
ATOM     19  H   LIG d   1      -6.315  81.870 118.090  0.00  0.00    -0.090 HD
ATOM     20  H   LIG d   1      -7.000  81.310 116.727  0.00  0.00    -0.090 HD
ATOM     21  H   LIG d   1      -5.421  80.997 117.036  0.00  0.00    -0.090 HD
ENDBRANCH   5  18
BRANCH   3  22
ATOM     22  C   LIG d   1     -10.013  78.376 118.810  0.00  0.00     0.382 C 
ATOM     23  O   LIG d   1     -10.785  77.518 118.319  0.00  0.00    -0.241 OA
ATOM     24  O   LIG d   1     -10.453  79.194 119.639  0.00  0.00    -0.241 OA
ENDBRANCH   3  22
TORSDOF 7
ENDMDL
MODEL 5
REMARK VINA RESULT:      -5.6      2.526      4.083
REMARK  7 active torsions:
REMARK  status: ('A' for Active; 'I' for Inactive)
REMARK    1  A    between atoms: C_2  and  C_3 
REMARK    2  A    between atoms: C_3  and  O_6 
REMARK    3  A    between atoms: C_3  and  C_4 
REMARK    4  A    between atoms: C_7  and  O_6 
REMARK    5  A    between atoms: C_9  and  C_10 
REMARK    6  A    between atoms: N_15  and  C_14 
REMARK    7  A    between atoms: N_20  and  C_19 
REMARK       I    between atoms: C_22  and  N_20 
ROOT
ATOM      1  C   LIG d   1      -7.116  77.720 117.457  0.00  0.00     0.161 C 
ATOM      2  C   LIG d   1      -6.197  77.475 116.424  0.00  0.00     0.016 C 
ATOM      3  C   LIG d   1      -6.017  76.206 115.826  0.00  0.00     0.038 C 
ATOM      4  C   LIG d   1      -6.857  75.122 116.121  0.00  0.00     0.028 C 
ATOM      5  C   LIG d   1      -7.464  75.189 117.519  0.00  0.00    -0.047 C 
ATOM      6  C   LIG d   1      -8.119  76.576 117.715  0.00  0.00     0.091 C 
ENDROOT
BRANCH   1   7
ATOM      7  O   LIG d   1      -7.818  78.953 117.206  0.00  0.00    -0.368 OA
BRANCH   7   8
ATOM      8  C   LIG d   1      -7.626  80.006 118.182  0.00  0.00     0.119 C 
BRANCH   8   9
ATOM      9  C   LIG d   1      -8.883  80.898 118.155  0.00  0.00     0.028 C 
ATOM     10  C   LIG d   1      -8.759  82.056 117.151  0.00  0.00     0.006 C 
ENDBRANCH   8   9
BRANCH   8  11
ATOM     11  C   LIG d   1      -6.467  80.927 117.788  0.00  0.00     0.028 C 
ATOM     12  C   LIG d   1      -5.237  80.758 118.694  0.00  0.00     0.006 C 
ENDBRANCH   8  11
ENDBRANCH   7   8
ENDBRANCH   1   7
BRANCH   6  13
ATOM     13  N   LIG d   1      -8.664  76.756 119.086  0.00  0.00    -0.311 N 
ATOM     14  C   LIG d   1      -9.849  77.308 119.338  0.00  0.00     0.210 C 
ATOM     15  C   LIG d   1     -10.211  77.417 120.822  0.00  0.00     0.109 C 
ATOM     16  O   LIG d   1     -10.649  77.690 118.470  0.00  0.00    -0.276 OA
ATOM     17  H   LIG d   1      -8.093  76.445 119.848  0.00  0.00     0.149 HD
ENDBRANCH   6  13
BRANCH   5  18
ATOM     18  N   LIG d   1      -8.423  74.075 117.642  0.00  0.00     0.381 N 
ATOM     19  H   LIG d   1      -8.831  74.079 118.555  0.00  0.00    -0.090 HD
ATOM     20  H   LIG d   1      -7.930  73.207 117.521  0.00  0.00    -0.090 HD
ATOM     21  H   LIG d   1      -9.135  74.159 116.951  0.00  0.00    -0.090 HD
ENDBRANCH   5  18
BRANCH   3  22
ATOM     22  C   LIG d   1      -4.961  76.002 114.951  0.00  0.00     0.382 C 
ATOM     23  O   LIG d   1      -5.052  76.383 113.759  0.00  0.00    -0.241 OA
ATOM     24  O   LIG d   1      -3.936  75.403 115.327  0.00  0.00    -0.241 OA
ENDBRANCH   3  22
TORSDOF 7
ENDMDL
MODEL 6
REMARK VINA RESULT:      -5.5      2.475      3.790
REMARK  7 active torsions:
REMARK  status: ('A' for Active; 'I' for Inactive)
REMARK    1  A    between atoms: C_2  and  C_3 
REMARK    2  A    between atoms: C_3  and  O_6 
REMARK    3  A    between atoms: C_3  and  C_4 
REMARK    4  A    between atoms: C_7  and  O_6 
REMARK    5  A    between atoms: C_9  and  C_10 
REMARK    6  A    between atoms: N_15  and  C_14 
REMARK    7  A    between atoms: N_20  and  C_19 
REMARK       I    between atoms: C_22  and  N_20 
ROOT
ATOM      1  C   LIG d   1      -6.947  77.743 117.367  0.00  0.00     0.161 C 
ATOM      2  C   LIG d   1      -6.031  77.515 116.328  0.00  0.00     0.016 C 
ATOM      3  C   LIG d   1      -5.890  76.270 115.673  0.00  0.00     0.038 C 
ATOM      4  C   LIG d   1      -6.769  75.203 115.913  0.00  0.00     0.028 C 
ATOM      5  C   LIG d   1      -7.383  75.226 117.309  0.00  0.00    -0.047 C 
ATOM      6  C   LIG d   1      -7.990  76.624 117.567  0.00  0.00     0.091 C 
ENDROOT
BRANCH   1   7
ATOM      7  O   LIG d   1      -7.605  79.011 117.170  0.00  0.00    -0.368 OA
BRANCH   7   8
ATOM      8  C   LIG d   1      -6.906  80.176 117.674  0.00  0.00     0.119 C 
BRANCH   8   9
ATOM      9  C   LIG d   1      -6.659  79.953 119.178  0.00  0.00     0.028 C 
ATOM     10  C   LIG d   1      -5.710  81.004 119.779  0.00  0.00     0.006 C 
ENDBRANCH   8   9
BRANCH   8  11
ATOM     11  C   LIG d   1      -7.781  81.430 117.588  0.00  0.00     0.028 C 
ATOM     12  C   LIG d   1      -9.272  81.133 117.814  0.00  0.00     0.006 C 
ENDBRANCH   8  11
ENDBRANCH   7   8
ENDBRANCH   1   7
BRANCH   6  13
ATOM     13  N   LIG d   1      -8.537  76.759 118.942  0.00  0.00    -0.311 N 
ATOM     14  C   LIG d   1      -9.728  77.292 119.208  0.00  0.00     0.210 C 
ATOM     15  C   LIG d   1     -10.092  77.354 120.695  0.00  0.00     0.109 C 
ATOM     16  O   LIG d   1     -10.532  77.691 118.352  0.00  0.00    -0.276 OA
ATOM     17  H   LIG d   1      -7.964  76.432 119.695  0.00  0.00     0.149 HD
ENDBRANCH   6  13
BRANCH   5  18
ATOM     18  N   LIG d   1      -8.380  74.141 117.375  0.00  0.00     0.381 N 
ATOM     19  H   LIG d   1      -8.633  73.857 116.450  0.00  0.00    -0.090 HD
ATOM     20  H   LIG d   1      -9.204  74.484 117.836  0.00  0.00    -0.090 HD
ATOM     21  H   LIG d   1      -8.007  73.366 117.878  0.00  0.00    -0.090 HD
ENDBRANCH   5  18
BRANCH   3  22
ATOM     22  C   LIG d   1      -4.836  76.071 114.794  0.00  0.00     0.382 C 
ATOM     23  O   LIG d   1      -4.704  74.966 114.214  0.00  0.00    -0.241 OA
ATOM     24  O   LIG d   1      -3.991  76.966 114.608  0.00  0.00    -0.241 OA
ENDBRANCH   3  22
TORSDOF 7
ENDMDL
MODEL 7
REMARK VINA RESULT:      -5.4      2.810      5.242
REMARK  7 active torsions:
REMARK  status: ('A' for Active; 'I' for Inactive)
REMARK    1  A    between atoms: C_2  and  C_3 
REMARK    2  A    between atoms: C_3  and  O_6 
REMARK    3  A    between atoms: C_3  and  C_4 
REMARK    4  A    between atoms: C_7  and  O_6 
REMARK    5  A    between atoms: C_9  and  C_10 
REMARK    6  A    between atoms: N_15  and  C_14 
REMARK    7  A    between atoms: N_20  and  C_19 
REMARK       I    between atoms: C_22  and  N_20 
ROOT
ATOM      1  C   LIG d   1      -6.754  77.504 117.138  0.00  0.00     0.161 C 
ATOM      2  C   LIG d   1      -6.682  78.904 117.223  0.00  0.00     0.016 C 
ATOM      3  C   LIG d   1      -7.693  79.701 117.807  0.00  0.00     0.038 C 
ATOM      4  C   LIG d   1      -8.783  79.136 118.487  0.00  0.00     0.028 C 
ATOM      5  C   LIG d   1      -9.152  77.743 117.987  0.00  0.00    -0.047 C 
ATOM      6  C   LIG d   1      -7.882  76.862 117.973  0.00  0.00     0.091 C 
ENDROOT
BRANCH   1   7
ATOM      7  O   LIG d   1      -5.481  76.927 117.490  0.00  0.00    -0.368 OA
BRANCH   7   8
ATOM      8  C   LIG d   1      -4.569  76.677 116.392  0.00  0.00     0.119 C 
BRANCH   8   9
ATOM      9  C   LIG d   1      -5.322  75.829 115.349  0.00  0.00     0.028 C 
ATOM     10  C   LIG d   1      -5.302  74.329 115.687  0.00  0.00     0.006 C 
ENDBRANCH   8   9
BRANCH   8  11
ATOM     11  C   LIG d   1      -3.384  75.815 116.837  0.00  0.00     0.028 C 
ATOM     12  C   LIG d   1      -2.919  76.133 118.266  0.00  0.00     0.006 C 
ENDBRANCH   8  11
ENDBRANCH   7   8
ENDBRANCH   1   7
BRANCH   6  13
ATOM     13  N   LIG d   1      -8.138  75.508 117.417  0.00  0.00    -0.311 N 
ATOM     14  C   LIG d   1      -8.407  74.444 118.172  0.00  0.00     0.210 C 
ATOM     15  C   LIG d   1      -8.619  73.139 117.399  0.00  0.00     0.109 C 
ATOM     16  O   LIG d   1      -8.521  74.464 119.407  0.00  0.00    -0.276 OA
ATOM     17  H   LIG d   1      -8.096  75.408 116.422  0.00  0.00     0.149 HD
ENDBRANCH   6  13
BRANCH   5  18
ATOM     18  N   LIG d   1     -10.210  77.218 118.871  0.00  0.00     0.381 N 
ATOM     19  H   LIG d   1      -9.878  76.407 119.352  0.00  0.00    -0.090 HD
ATOM     20  H   LIG d   1     -11.000  76.951 118.310  0.00  0.00    -0.090 HD
ATOM     21  H   LIG d   1     -10.482  77.916 119.529  0.00  0.00    -0.090 HD
ENDBRANCH   5  18
BRANCH   3  22
ATOM     22  C   LIG d   1      -7.640  81.081 117.680  0.00  0.00     0.382 C 
ATOM     23  O   LIG d   1      -8.445  81.801 118.320  0.00  0.00    -0.241 OA
ATOM     24  O   LIG d   1      -6.827  81.612 116.901  0.00  0.00    -0.241 OA
ENDBRANCH   3  22
TORSDOF 7
ENDMDL
MODEL 8
REMARK VINA RESULT:      -5.1     14.943     17.551
REMARK  7 active torsions:
REMARK  status: ('A' for Active; 'I' for Inactive)
REMARK    1  A    between atoms: C_2  and  C_3 
REMARK    2  A    between atoms: C_3  and  O_6 
REMARK    3  A    between atoms: C_3  and  C_4 
REMARK    4  A    between atoms: C_7  and  O_6 
REMARK    5  A    between atoms: C_9  and  C_10 
REMARK    6  A    between atoms: N_15  and  C_14 
REMARK    7  A    between atoms: N_20  and  C_19 
REMARK       I    between atoms: C_22  and  N_20 
ROOT
ATOM      1  C   LIG d   1      -3.455  90.954 117.920  0.00  0.00     0.161 C 
ATOM      2  C   LIG d   1      -4.461  90.589 117.011  0.00  0.00     0.016 C 
ATOM      3  C   LIG d   1      -5.565  91.415 116.698  0.00  0.00     0.038 C 
ATOM      4  C   LIG d   1      -5.658  92.735 117.163  0.00  0.00     0.028 C 
ATOM      5  C   LIG d   1      -4.927  92.967 118.481  0.00  0.00    -0.047 C 
ATOM      6  C   LIG d   1      -3.481  92.436 118.352  0.00  0.00     0.091 C 
ENDROOT
BRANCH   1   7
ATOM      7  O   LIG d   1      -2.162  90.612 117.382  0.00  0.00    -0.368 OA
BRANCH   7   8
ATOM      8  C   LIG d   1      -1.628  89.324 117.777  0.00  0.00     0.119 C 
BRANCH   8   9
ATOM      9  C   LIG d   1      -1.883  89.161 119.288  0.00  0.00     0.028 C 
ATOM     10  C   LIG d   1      -2.360  87.745 119.653  0.00  0.00     0.006 C 
ENDBRANCH   8   9
BRANCH   8  11
ATOM     11  C   LIG d   1      -0.106  89.279 117.616  0.00  0.00     0.028 C 
ATOM     12  C   LIG d   1       0.401  87.915 117.120  0.00  0.00     0.006 C 
ENDBRANCH   8  11
ENDBRANCH   7   8
ENDBRANCH   1   7
BRANCH   6  13
ATOM     13  N   LIG d   1      -2.721  92.546 119.625  0.00  0.00    -0.311 N 
ATOM     14  C   LIG d   1      -1.444  92.922 119.686  0.00  0.00     0.210 C 
ATOM     15  C   LIG d   1      -0.846  92.950 121.096  0.00  0.00     0.109 C 
ATOM     16  O   LIG d   1      -0.760  93.265 118.710  0.00  0.00    -0.276 OA
ATOM     17  H   LIG d   1      -3.208  92.317 120.468  0.00  0.00     0.149 HD
ENDBRANCH   6  13
BRANCH   5  18
ATOM     18  N   LIG d   1      -4.988  94.410 118.777  0.00  0.00     0.381 N 
ATOM     19  H   LIG d   1      -4.413  94.618 119.569  0.00  0.00    -0.090 HD
ATOM     20  H   LIG d   1      -5.936  94.656 119.003  0.00  0.00    -0.090 HD
ATOM     21  H   LIG d   1      -4.681  94.934 117.988  0.00  0.00    -0.090 HD
ENDBRANCH   5  18
BRANCH   3  22
ATOM     22  C   LIG d   1      -6.611  90.907 115.943  0.00  0.00     0.382 C 
ATOM     23  O   LIG d   1      -7.750  91.429 116.019  0.00  0.00    -0.241 OA
ATOM     24  O   LIG d   1      -6.442  89.907 115.221  0.00  0.00    -0.241 OA
ENDBRANCH   3  22
TORSDOF 7
ENDMDL
MODEL 9
REMARK VINA RESULT:      -5.1      3.135      6.295
REMARK  7 active torsions:
REMARK  status: ('A' for Active; 'I' for Inactive)
REMARK    1  A    between atoms: C_2  and  C_3 
REMARK    2  A    between atoms: C_3  and  O_6 
REMARK    3  A    between atoms: C_3  and  C_4 
REMARK    4  A    between atoms: C_7  and  O_6 
REMARK    5  A    between atoms: C_9  and  C_10 
REMARK    6  A    between atoms: N_15  and  C_14 
REMARK    7  A    between atoms: N_20  and  C_19 
REMARK       I    between atoms: C_22  and  N_20 
ROOT
ATOM      1  C   LIG d   1      -5.943  77.237 117.176  0.00  0.00     0.161 C 
ATOM      2  C   LIG d   1      -6.253  75.881 116.980  0.00  0.00     0.016 C 
ATOM      3  C   LIG d   1      -7.539  75.337 117.204  0.00  0.00     0.038 C 
ATOM      4  C   LIG d   1      -8.646  76.147 117.495  0.00  0.00     0.028 C 
ATOM      5  C   LIG d   1      -8.277  77.450 118.195  0.00  0.00    -0.047 C 
ATOM      6  C   LIG d   1      -7.165  78.156 117.386  0.00  0.00     0.091 C 
ENDROOT
BRANCH   1   7
ATOM      7  O   LIG d   1      -5.138  77.717 116.081  0.00  0.00    -0.368 OA
BRANCH   7   8
ATOM      8  C   LIG d   1      -3.751  78.003 116.387  0.00  0.00     0.119 C 
BRANCH   8   9
ATOM      9  C   LIG d   1      -2.898  76.884 115.758  0.00  0.00     0.028 C 
ATOM     10  C   LIG d   1      -2.488  75.812 116.782  0.00  0.00     0.006 C 
ENDBRANCH   8   9
BRANCH   8  11
ATOM     11  C   LIG d   1      -3.484  77.918 117.893  0.00  0.00     0.028 C 
ATOM     12  C   LIG d   1      -2.932  79.229 118.475  0.00  0.00     0.006 C 
ENDBRANCH   8  11
ENDBRANCH   7   8
ENDBRANCH   1   7
BRANCH   6  13
ATOM     13  N   LIG d   1      -6.685  79.398 118.047  0.00  0.00    -0.311 N 
ATOM     14  C   LIG d   1      -7.202  80.602 117.807  0.00  0.00     0.210 C 
ATOM     15  C   LIG d   1      -6.547  81.752 118.580  0.00  0.00     0.109 C 
ATOM     16  O   LIG d   1      -8.161  80.823 117.053  0.00  0.00    -0.276 OA
ATOM     17  H   LIG d   1      -5.930  79.306 118.697  0.00  0.00     0.149 HD
ENDBRANCH   6  13
BRANCH   5  18
ATOM     18  N   LIG d   1      -9.506  78.256 118.315  0.00  0.00     0.381 N 
ATOM     19  H   LIG d   1      -9.279  79.175 118.640  0.00  0.00    -0.090 HD
ATOM     20  H   LIG d   1     -10.114  77.825 118.989  0.00  0.00    -0.090 HD
ATOM     21  H   LIG d   1      -9.964  78.312 117.432  0.00  0.00    -0.090 HD
ENDBRANCH   5  18
BRANCH   3  22
ATOM     22  C   LIG d   1      -7.717  73.962 117.176  0.00  0.00     0.382 C 
ATOM     23  O   LIG d   1      -8.639  73.436 117.844  0.00  0.00    -0.241 OA
ATOM     24  O   LIG d   1      -6.940  73.237 116.526  0.00  0.00    -0.241 OA
ENDBRANCH   3  22
TORSDOF 7
ENDMDL
