MODEL 1
REMARK VINA RESULT:      -5.6      0.000      0.000
REMARK  7 active torsions:
REMARK  status: ('A' for Active; 'I' for Inactive)
REMARK    1  A    between atoms: C_2  and  C_3 
REMARK    2  A    between atoms: C_3  and  O_6 
REMARK    3  A    between atoms: C_3  and  C_4 
REMARK    4  A    between atoms: C_7  and  O_6 
REMARK    5  A    between atoms: C_9  and  C_10 
REMARK    6  A    between atoms: N_15  and  C_14 
REMARK    7  A    between atoms: N_20  and  C_19 
REMARK       I    between atoms: C_22  and  N_20 
ROOT
ATOM      1  C   LIG d   1      -7.134  76.740 117.277  0.00  0.00     0.161 C 
ATOM      2  C   LIG d   1      -8.436  77.190 117.550  0.00  0.00     0.016 C 
ATOM      3  C   LIG d   1      -8.749  78.536 117.847  0.00  0.00     0.038 C 
ATOM      4  C   LIG d   1      -7.795  79.559 117.741  0.00  0.00     0.028 C 
ATOM      5  C   LIG d   1      -6.364  79.079 117.961  0.00  0.00    -0.047 C 
ATOM      6  C   LIG d   1      -6.098  77.861 117.047  0.00  0.00     0.091 C 
ENDROOT
BRANCH   1   7
ATOM      7  O   LIG d   1      -7.154  75.839 116.153  0.00  0.00    -0.368 OA
BRANCH   7   8
ATOM      8  C   LIG d   1      -6.446  74.587 116.327  0.00  0.00     0.119 C 
BRANCH   8   9
ATOM      9  C   LIG d   1      -5.575  74.369 115.074  0.00  0.00     0.028 C 
ATOM     10  C   LIG d   1      -5.592  75.583 114.130  0.00  0.00     0.006 C 
ENDBRANCH   8   9
BRANCH   8  11
ATOM     11  C   LIG d   1      -7.413  73.400 116.359  0.00  0.00     0.028 C 
ATOM     12  C   LIG d   1      -6.752  72.081 115.928  0.00  0.00     0.006 C 
ENDBRANCH   8  11
ENDBRANCH   7   8
ENDBRANCH   1   7
BRANCH   6  13
ATOM     13  N   LIG d   1      -4.748  77.276 117.261  0.00  0.00    -0.311 N 
ATOM     14  C   LIG d   1      -3.685  77.599 116.528  0.00  0.00     0.210 C 
ATOM     15  C   LIG d   1      -2.394  76.865 116.902  0.00  0.00     0.109 C 
ATOM     16  O   LIG d   1      -3.681  78.448 115.623  0.00  0.00    -0.276 OA
ATOM     17  H   LIG d   1      -4.654  76.602 117.995  0.00  0.00     0.149 HD
ENDBRANCH   6  13
BRANCH   5  18
ATOM     18  N   LIG d   1      -5.465  80.216 117.686  0.00  0.00     0.381 N 
ATOM     19  H   LIG d   1      -5.298  80.727 118.529  0.00  0.00    -0.090 HD
ATOM     20  H   LIG d   1      -5.910  80.830 117.027  0.00  0.00    -0.090 HD
ATOM     21  H   LIG d   1      -4.603  79.885 117.312  0.00  0.00    -0.090 HD
ENDBRANCH   5  18
BRANCH   3  22
ATOM     22  C   LIG d   1     -10.020  78.865 118.293  0.00  0.00     0.382 C 
ATOM     23  O   LIG d   1     -10.786  77.967 118.719  0.00  0.00    -0.241 OA
ATOM     24  O   LIG d   1     -10.426  80.041 118.234  0.00  0.00    -0.241 OA
ENDBRANCH   3  22
TORSDOF 7
ENDMDL
MODEL 2
REMARK VINA RESULT:      -5.3     14.290     17.151
REMARK  7 active torsions:
REMARK  status: ('A' for Active; 'I' for Inactive)
REMARK    1  A    between atoms: C_2  and  C_3 
REMARK    2  A    between atoms: C_3  and  O_6 
REMARK    3  A    between atoms: C_3  and  C_4 
REMARK    4  A    between atoms: C_7  and  O_6 
REMARK    5  A    between atoms: C_9  and  C_10 
REMARK    6  A    between atoms: N_15  and  C_14 
REMARK    7  A    between atoms: N_20  and  C_19 
REMARK       I    between atoms: C_22  and  N_20 
ROOT
ATOM      1  C   LIG d   1      -6.082  93.457 118.529  0.00  0.00     0.161 C 
ATOM      2  C   LIG d   1      -6.760  92.403 117.895  0.00  0.00     0.016 C 
ATOM      3  C   LIG d   1      -6.102  91.324 117.260  0.00  0.00     0.038 C 
ATOM      4  C   LIG d   1      -4.714  91.148 117.348  0.00  0.00     0.028 C 
ATOM      5  C   LIG d   1      -3.948  92.452 117.545  0.00  0.00    -0.047 C 
ATOM      6  C   LIG d   1      -4.570  93.224 118.731  0.00  0.00     0.091 C 
ENDROOT
BRANCH   1   7
ATOM      7  O   LIG d   1      -6.715  93.759 119.788  0.00  0.00    -0.368 OA
BRANCH   7   8
ATOM      8  C   LIG d   1      -7.165  95.125 119.964  0.00  0.00     0.119 C 
BRANCH   8   9
ATOM      9  C   LIG d   1      -8.573  95.071 120.588  0.00  0.00     0.028 C 
ATOM     10  C   LIG d   1      -9.652  94.673 119.567  0.00  0.00     0.006 C 
ENDBRANCH   8   9
BRANCH   8  11
ATOM     11  C   LIG d   1      -7.345  95.830 118.617  0.00  0.00     0.028 C 
ATOM     12  C   LIG d   1      -6.644  97.197 118.561  0.00  0.00     0.006 C 
ENDBRANCH   8  11
ENDBRANCH   7   8
ENDBRANCH   1   7
BRANCH   6  13
ATOM     13  N   LIG d   1      -3.934  94.551 118.939  0.00  0.00    -0.311 N 
ATOM     14  C   LIG d   1      -2.931  94.759 119.790  0.00  0.00     0.210 C 
ATOM     15  C   LIG d   1      -2.435  96.206 119.865  0.00  0.00     0.109 C 
ATOM     16  O   LIG d   1      -2.383  93.875 120.466  0.00  0.00    -0.276 OA
ATOM     17  H   LIG d   1      -4.296  95.319 118.407  0.00  0.00     0.149 HD
ENDBRANCH   6  13
BRANCH   5  18
ATOM     18  N   LIG d   1      -2.530  92.109 117.758  0.00  0.00     0.381 N 
ATOM     19  H   LIG d   1      -2.080  91.964 116.876  0.00  0.00    -0.090 HD
ATOM     20  H   LIG d   1      -2.478  91.253 118.283  0.00  0.00    -0.090 HD
ATOM     21  H   LIG d   1      -2.073  92.841 118.256  0.00  0.00    -0.090 HD
ENDBRANCH   5  18
BRANCH   3  22
ATOM     22  C   LIG d   1      -6.833  90.429 116.494  0.00  0.00     0.382 C 
ATOM     23  O   LIG d   1      -8.018  90.158 116.806  0.00  0.00    -0.241 OA
ATOM     24  O   LIG d   1      -6.308  89.856 115.521  0.00  0.00    -0.241 OA
ENDBRANCH   3  22
TORSDOF 7
ENDMDL
MODEL 3
REMARK VINA RESULT:      -5.3      1.369      2.063
REMARK  7 active torsions:
REMARK  status: ('A' for Active; 'I' for Inactive)
REMARK    1  A    between atoms: C_2  and  C_3 
REMARK    2  A    between atoms: C_3  and  O_6 
REMARK    3  A    between atoms: C_3  and  C_4 
REMARK    4  A    between atoms: C_7  and  O_6 
REMARK    5  A    between atoms: C_9  and  C_10 
REMARK    6  A    between atoms: N_15  and  C_14 
REMARK    7  A    between atoms: N_20  and  C_19 
REMARK       I    between atoms: C_22  and  N_20 
ROOT
ATOM      1  C   LIG d   1      -6.891  76.929 117.183  0.00  0.00     0.161 C 
ATOM      2  C   LIG d   1      -8.179  77.488 117.241  0.00  0.00     0.016 C 
ATOM      3  C   LIG d   1      -8.559  78.470 118.184  0.00  0.00     0.038 C 
ATOM      4  C   LIG d   1      -7.627  79.075 119.041  0.00  0.00     0.028 C 
ATOM      5  C   LIG d   1      -6.431  78.184 119.360  0.00  0.00    -0.047 C 
ATOM      6  C   LIG d   1      -5.832  77.656 118.037  0.00  0.00     0.091 C 
ENDROOT
BRANCH   1   7
ATOM      7  O   LIG d   1      -6.457  76.845 115.811  0.00  0.00    -0.368 OA
BRANCH   7   8
ATOM      8  C   LIG d   1      -6.363  75.511 115.253  0.00  0.00     0.119 C 
BRANCH   8   9
ATOM      9  C   LIG d   1      -6.774  74.517 116.357  0.00  0.00     0.028 C 
ATOM     10  C   LIG d   1      -6.567  73.053 115.935  0.00  0.00     0.006 C 
ENDBRANCH   8   9
BRANCH   8  11
ATOM     11  C   LIG d   1      -4.916  75.153 114.903  0.00  0.00     0.028 C 
ATOM     12  C   LIG d   1      -4.036  76.391 114.670  0.00  0.00     0.006 C 
ENDBRANCH   8  11
ENDBRANCH   7   8
ENDBRANCH   1   7
BRANCH   6  13
ATOM     13  N   LIG d   1      -4.708  76.709 118.262  0.00  0.00    -0.311 N 
ATOM     14  C   LIG d   1      -3.428  77.078 118.266  0.00  0.00     0.210 C 
ATOM     15  C   LIG d   1      -2.429  75.940 118.497  0.00  0.00     0.109 C 
ATOM     16  O   LIG d   1      -3.028  78.244 118.133  0.00  0.00    -0.276 OA
ATOM     17  H   LIG d   1      -4.945  75.747 118.410  0.00  0.00     0.149 HD
ENDBRANCH   6  13
BRANCH   5  18
ATOM     18  N   LIG d   1      -5.476  78.986 120.148  0.00  0.00     0.381 N 
ATOM     19  H   LIG d   1      -5.236  79.817 119.645  0.00  0.00    -0.090 HD
ATOM     20  H   LIG d   1      -4.639  78.449 120.288  0.00  0.00    -0.090 HD
ATOM     21  H   LIG d   1      -5.877  79.226 121.028  0.00  0.00    -0.090 HD
ENDBRANCH   5  18
BRANCH   3  22
ATOM     22  C   LIG d   1      -9.893  78.829 118.303  0.00  0.00     0.382 C 
ATOM     23  O   LIG d   1     -10.752  77.963 118.596  0.00  0.00    -0.241 OA
ATOM     24  O   LIG d   1     -10.255  80.000 118.077  0.00  0.00    -0.241 OA
ENDBRANCH   3  22
TORSDOF 7
ENDMDL
MODEL 4
REMARK VINA RESULT:      -5.2     13.879     16.714
REMARK  7 active torsions:
REMARK  status: ('A' for Active; 'I' for Inactive)
REMARK    1  A    between atoms: C_2  and  C_3 
REMARK    2  A    between atoms: C_3  and  O_6 
REMARK    3  A    between atoms: C_3  and  C_4 
REMARK    4  A    between atoms: C_7  and  O_6 
REMARK    5  A    between atoms: C_9  and  C_10 
REMARK    6  A    between atoms: N_15  and  C_14 
REMARK    7  A    between atoms: N_20  and  C_19 
REMARK       I    between atoms: C_22  and  N_20 
ROOT
ATOM      1  C   LIG d   1      -6.051  93.132 117.966  0.00  0.00     0.161 C 
ATOM      2  C   LIG d   1      -6.928  92.269 117.290  0.00  0.00     0.016 C 
ATOM      3  C   LIG d   1      -6.511  91.075 116.657  0.00  0.00     0.038 C 
ATOM      4  C   LIG d   1      -5.204  90.584 116.788  0.00  0.00     0.028 C 
ATOM      5  C   LIG d   1      -4.168  91.676 117.036  0.00  0.00    -0.047 C 
ATOM      6  C   LIG d   1      -4.641  92.557 118.216  0.00  0.00     0.091 C 
ENDROOT
BRANCH   1   7
ATOM      7  O   LIG d   1      -6.645  93.557 119.209  0.00  0.00    -0.368 OA
BRANCH   7   8
ATOM      8  C   LIG d   1      -7.407  94.789 119.163  0.00  0.00     0.119 C 
BRANCH   8   9
ATOM      9  C   LIG d   1      -6.422  95.951 119.395  0.00  0.00     0.028 C 
ATOM     10  C   LIG d   1      -6.741  97.174 118.519  0.00  0.00     0.006 C 
ENDBRANCH   8   9
BRANCH   8  11
ATOM     11  C   LIG d   1      -8.408  94.868 120.319  0.00  0.00     0.028 C 
ATOM     12  C   LIG d   1      -9.865  94.702 119.859  0.00  0.00     0.006 C 
ENDBRANCH   8  11
ENDBRANCH   7   8
ENDBRANCH   1   7
BRANCH   6  13
ATOM     13  N   LIG d   1      -3.727  93.700 118.470  0.00  0.00    -0.311 N 
ATOM     14  C   LIG d   1      -3.155  93.933 119.651  0.00  0.00     0.210 C 
ATOM     15  C   LIG d   1      -2.263  95.177 119.703  0.00  0.00     0.109 C 
ATOM     16  O   LIG d   1      -3.276  93.209 120.650  0.00  0.00    -0.276 OA
ATOM     17  H   LIG d   1      -3.548  94.321 117.705  0.00  0.00     0.149 HD
ENDBRANCH   6  13
BRANCH   5  18
ATOM     18  N   LIG d   1      -2.875  91.014 117.291  0.00  0.00     0.381 N 
ATOM     19  H   LIG d   1      -2.962  90.387 118.066  0.00  0.00    -0.090 HD
ATOM     20  H   LIG d   1      -2.193  91.713 117.526  0.00  0.00    -0.090 HD
ATOM     21  H   LIG d   1      -2.583  90.513 116.481  0.00  0.00    -0.090 HD
ENDBRANCH   5  18
BRANCH   3  22
ATOM     22  C   LIG d   1      -7.398  90.380 115.848  0.00  0.00     0.382 C 
ATOM     23  O   LIG d   1      -8.160  89.519 116.350  0.00  0.00    -0.241 OA
ATOM     24  O   LIG d   1      -7.413  90.571 114.618  0.00  0.00    -0.241 OA
ENDBRANCH   3  22
TORSDOF 7
ENDMDL
MODEL 5
REMARK VINA RESULT:      -5.1     13.073     15.160
REMARK  7 active torsions:
REMARK  status: ('A' for Active; 'I' for Inactive)
REMARK    1  A    between atoms: C_2  and  C_3 
REMARK    2  A    between atoms: C_3  and  O_6 
REMARK    3  A    between atoms: C_3  and  C_4 
REMARK    4  A    between atoms: C_7  and  O_6 
REMARK    5  A    between atoms: C_9  and  C_10 
REMARK    6  A    between atoms: N_15  and  C_14 
REMARK    7  A    between atoms: N_20  and  C_19 
REMARK       I    between atoms: C_22  and  N_20 
ROOT
ATOM      1  C   LIG d   1      -4.356  91.273 117.843  0.00  0.00     0.161 C 
ATOM      2  C   LIG d   1      -5.220  90.569 116.987  0.00  0.00     0.016 C 
ATOM      3  C   LIG d   1      -6.436  91.100 116.500  0.00  0.00     0.038 C 
ATOM      4  C   LIG d   1      -6.800  92.438 116.715  0.00  0.00     0.028 C 
ATOM      5  C   LIG d   1      -6.207  93.029 117.989  0.00  0.00    -0.047 C 
ATOM      6  C   LIG d   1      -4.682  92.773 117.999  0.00  0.00     0.091 C 
ENDROOT
BRANCH   1   7
ATOM      7  O   LIG d   1      -2.992  91.099 117.412  0.00  0.00    -0.368 OA
BRANCH   7   8
ATOM      8  C   LIG d   1      -2.104  90.446 118.353  0.00  0.00     0.119 C 
BRANCH   8   9
ATOM      9  C   LIG d   1      -0.660  90.693 117.875  0.00  0.00     0.028 C 
ATOM     10  C   LIG d   1       0.120  91.620 118.822  0.00  0.00     0.006 C 
ENDBRANCH   8   9
BRANCH   8  11
ATOM     11  C   LIG d   1      -2.285  88.925 118.327  0.00  0.00     0.028 C 
ATOM     12  C   LIG d   1      -2.705  88.352 119.690  0.00  0.00     0.006 C 
ENDBRANCH   8  11
ENDBRANCH   7   8
ENDBRANCH   1   7
BRANCH   6  13
ATOM     13  N   LIG d   1      -4.036  93.246 119.251  0.00  0.00    -0.311 N 
ATOM     14  C   LIG d   1      -2.883  93.913 119.275  0.00  0.00     0.210 C 
ATOM     15  C   LIG d   1      -2.382  94.289 120.672  0.00  0.00     0.109 C 
ATOM     16  O   LIG d   1      -2.244  94.256 118.269  0.00  0.00    -0.276 OA
ATOM     17  H   LIG d   1      -4.502  93.037 120.112  0.00  0.00     0.149 HD
ENDBRANCH   6  13
BRANCH   5  18
ATOM     18  N   LIG d   1      -6.552  94.463 118.018  0.00  0.00     0.381 N 
ATOM     19  H   LIG d   1      -7.492  94.591 117.700  0.00  0.00    -0.090 HD
ATOM     20  H   LIG d   1      -5.938  94.958 117.396  0.00  0.00    -0.090 HD
ATOM     21  H   LIG d   1      -6.456  94.818 118.944  0.00  0.00    -0.090 HD
ENDBRANCH   5  18
BRANCH   3  22
ATOM     22  C   LIG d   1      -7.322  90.278 115.821  0.00  0.00     0.382 C 
ATOM     23  O   LIG d   1      -8.173  89.612 116.458  0.00  0.00    -0.241 OA
ATOM     24  O   LIG d   1      -7.252  90.159 114.583  0.00  0.00    -0.241 OA
ENDBRANCH   3  22
TORSDOF 7
ENDMDL
MODEL 6
REMARK VINA RESULT:      -4.9      2.399      3.272
REMARK  7 active torsions:
REMARK  status: ('A' for Active; 'I' for Inactive)
REMARK    1  A    between atoms: C_2  and  C_3 
REMARK    2  A    between atoms: C_3  and  O_6 
REMARK    3  A    between atoms: C_3  and  C_4 
REMARK    4  A    between atoms: C_7  and  O_6 
REMARK    5  A    between atoms: C_9  and  C_10 
REMARK    6  A    between atoms: N_15  and  C_14 
REMARK    7  A    between atoms: N_20  and  C_19 
REMARK       I    between atoms: C_22  and  N_20 
ROOT
ATOM      1  C   LIG d   1      -4.786  76.736 118.006  0.00  0.00     0.161 C 
ATOM      2  C   LIG d   1      -5.627  77.843 118.207  0.00  0.00     0.016 C 
ATOM      3  C   LIG d   1      -5.363  79.128 117.679  0.00  0.00     0.038 C 
ATOM      4  C   LIG d   1      -4.309  79.358 116.782  0.00  0.00     0.028 C 
ATOM      5  C   LIG d   1      -3.145  78.388 116.952  0.00  0.00    -0.047 C 
ATOM      6  C   LIG d   1      -3.691  76.942 116.938  0.00  0.00     0.091 C 
ENDROOT
BRANCH   1   7
ATOM      7  O   LIG d   1      -5.576  75.572 117.696  0.00  0.00    -0.368 OA
BRANCH   7   8
ATOM      8  C   LIG d   1      -6.370  75.644 116.486  0.00  0.00     0.119 C 
BRANCH   8   9
ATOM      9  C   LIG d   1      -7.828  75.326 116.869  0.00  0.00     0.028 C 
ATOM     10  C   LIG d   1      -8.713  76.584 116.904  0.00  0.00     0.006 C 
ENDBRANCH   8   9
BRANCH   8  11
ATOM     11  C   LIG d   1      -5.966  74.554 115.488  0.00  0.00     0.028 C 
ATOM     12  C   LIG d   1      -6.468  73.160 115.894  0.00  0.00     0.006 C 
ENDBRANCH   8  11
ENDBRANCH   7   8
ENDBRANCH   1   7
BRANCH   6  13
ATOM     13  N   LIG d   1      -2.628  75.932 117.183  0.00  0.00    -0.311 N 
ATOM     14  C   LIG d   1      -2.152  75.124 116.238  0.00  0.00     0.210 C 
ATOM     15  C   LIG d   1      -1.073  74.144 116.708  0.00  0.00     0.109 C 
ATOM     16  O   LIG d   1      -2.499  75.148 115.047  0.00  0.00    -0.276 OA
ATOM     17  H   LIG d   1      -2.268  75.866 118.115  0.00  0.00     0.149 HD
ENDBRANCH   6  13
BRANCH   5  18
ATOM     18  N   LIG d   1      -2.182  78.653 115.867  0.00  0.00     0.381 N 
ATOM     19  H   LIG d   1      -1.421  78.006 115.925  0.00  0.00    -0.090 HD
ATOM     20  H   LIG d   1      -1.815  79.582 115.978  0.00  0.00    -0.090 HD
ATOM     21  H   LIG d   1      -2.632  78.569 114.983  0.00  0.00    -0.090 HD
ENDBRANCH   5  18
BRANCH   3  22
ATOM     22  C   LIG d   1      -6.134  80.208 118.081  0.00  0.00     0.382 C 
ATOM     23  O   LIG d   1      -6.724  80.910 117.224  0.00  0.00    -0.241 OA
ATOM     24  O   LIG d   1      -6.212  80.516 119.285  0.00  0.00    -0.241 OA
ENDBRANCH   3  22
TORSDOF 7
ENDMDL
MODEL 7
REMARK VINA RESULT:      -4.7     14.516     16.638
REMARK  7 active torsions:
REMARK  status: ('A' for Active; 'I' for Inactive)
REMARK    1  A    between atoms: C_2  and  C_3 
REMARK    2  A    between atoms: C_3  and  O_6 
REMARK    3  A    between atoms: C_3  and  C_4 
REMARK    4  A    between atoms: C_7  and  O_6 
REMARK    5  A    between atoms: C_9  and  C_10 
REMARK    6  A    between atoms: N_15  and  C_14 
REMARK    7  A    between atoms: N_20  and  C_19 
REMARK       I    between atoms: C_22  and  N_20 
ROOT
ATOM      1  C   LIG d   1      -5.444  93.196 118.605  0.00  0.00     0.161 C 
ATOM      2  C   LIG d   1      -6.743  93.682 118.377  0.00  0.00     0.016 C 
ATOM      3  C   LIG d   1      -7.188  94.950 118.816  0.00  0.00     0.038 C 
ATOM      4  C   LIG d   1      -6.313  95.886 119.387  0.00  0.00     0.028 C 
ATOM      5  C   LIG d   1      -5.120  95.249 120.092  0.00  0.00    -0.047 C 
ATOM      6  C   LIG d   1      -4.443  94.248 119.128  0.00  0.00     0.091 C 
ENDROOT
BRANCH   1   7
ATOM      7  O   LIG d   1      -4.937  92.574 117.408  0.00  0.00    -0.368 OA
BRANCH   7   8
ATOM      8  C   LIG d   1      -5.075  91.134 117.331  0.00  0.00     0.119 C 
BRANCH   8   9
ATOM      9  C   LIG d   1      -3.673  90.524 117.526  0.00  0.00     0.028 C 
ATOM     10  C   LIG d   1      -3.479  89.938 118.934  0.00  0.00     0.006 C 
ENDBRANCH   8   9
BRANCH   8  11
ATOM     11  C   LIG d   1      -5.520  90.691 115.934  0.00  0.00     0.028 C 
ATOM     12  C   LIG d   1      -6.378  91.747 115.219  0.00  0.00     0.006 C 
ENDBRANCH   8  11
ENDBRANCH   7   8
ENDBRANCH   1   7
BRANCH   6  13
ATOM     13  N   LIG d   1      -3.318  93.519 119.768  0.00  0.00    -0.311 N 
ATOM     14  C   LIG d   1      -2.094  93.455 119.245  0.00  0.00     0.210 C 
ATOM     15  C   LIG d   1      -1.086  92.634 120.056  0.00  0.00     0.109 C 
ATOM     16  O   LIG d   1      -1.740  94.026 118.203  0.00  0.00    -0.276 OA
ATOM     17  H   LIG d   1      -3.509  93.052 120.632  0.00  0.00     0.149 HD
ENDBRANCH   6  13
BRANCH   5  18
ATOM     18  N   LIG d   1      -4.222  96.338 120.519  0.00  0.00     0.381 N 
ATOM     19  H   LIG d   1      -4.423  97.168 119.998  0.00  0.00    -0.090 HD
ATOM     20  H   LIG d   1      -3.272  96.070 120.330  0.00  0.00    -0.090 HD
ATOM     21  H   LIG d   1      -4.337  96.513 121.493  0.00  0.00    -0.090 HD
ENDBRANCH   5  18
BRANCH   3  22
ATOM     22  C   LIG d   1      -8.532  95.276 118.723  0.00  0.00     0.382 C 
ATOM     23  O   LIG d   1      -8.905  96.459 118.914  0.00  0.00    -0.241 OA
ATOM     24  O   LIG d   1      -9.382  94.395 118.493  0.00  0.00    -0.241 OA
ENDBRANCH   3  22
TORSDOF 7
ENDMDL
MODEL 8
REMARK VINA RESULT:      -4.6      1.943      2.667
REMARK  7 active torsions:
REMARK  status: ('A' for Active; 'I' for Inactive)
REMARK    1  A    between atoms: C_2  and  C_3 
REMARK    2  A    between atoms: C_3  and  O_6 
REMARK    3  A    between atoms: C_3  and  C_4 
REMARK    4  A    between atoms: C_7  and  O_6 
REMARK    5  A    between atoms: C_9  and  C_10 
REMARK    6  A    between atoms: N_15  and  C_14 
REMARK    7  A    between atoms: N_20  and  C_19 
REMARK       I    between atoms: C_22  and  N_20 
ROOT
ATOM      1  C   LIG d   1      -5.987  77.919 117.399  0.00  0.00     0.161 C 
ATOM      2  C   LIG d   1      -7.002  78.890 117.358  0.00  0.00     0.016 C 
ATOM      3  C   LIG d   1      -6.946  80.105 118.079  0.00  0.00     0.038 C 
ATOM      4  C   LIG d   1      -5.794  80.502 118.775  0.00  0.00     0.028 C 
ATOM      5  C   LIG d   1      -4.944  79.331 119.256  0.00  0.00    -0.047 C 
ATOM      6  C   LIG d   1      -4.675  78.383 118.065  0.00  0.00     0.091 C 
ENDROOT
BRANCH   1   7
ATOM      7  O   LIG d   1      -5.728  77.427 116.069  0.00  0.00    -0.368 OA
BRANCH   7   8
ATOM      8  C   LIG d   1      -6.465  76.244 115.673  0.00  0.00     0.119 C 
BRANCH   8   9
ATOM      9  C   LIG d   1      -6.614  75.352 116.920  0.00  0.00     0.028 C 
ATOM     10  C   LIG d   1      -7.030  73.914 116.566  0.00  0.00     0.006 C 
ENDBRANCH   8   9
BRANCH   8  11
ATOM     11  C   LIG d   1      -5.672  75.406 114.666  0.00  0.00     0.028 C 
ATOM     12  C   LIG d   1      -4.154  75.483 114.890  0.00  0.00     0.006 C 
ENDBRANCH   8  11
ENDBRANCH   7   8
ENDBRANCH   1   7
BRANCH   6  13
ATOM     13  N   LIG d   1      -3.920  77.168 118.467  0.00  0.00    -0.311 N 
ATOM     14  C   LIG d   1      -2.596  77.061 118.368  0.00  0.00     0.210 C 
ATOM     15  C   LIG d   1      -2.021  75.715 118.819  0.00  0.00     0.109 C 
ATOM     16  O   LIG d   1      -1.840  77.965 117.980  0.00  0.00    -0.276 OA
ATOM     17  H   LIG d   1      -4.452  76.397 118.822  0.00  0.00     0.149 HD
ENDBRANCH   6  13
BRANCH   5  18
ATOM     18  N   LIG d   1      -3.710  79.888 119.842  0.00  0.00     0.381 N 
ATOM     19  H   LIG d   1      -3.655  80.868 119.649  0.00  0.00    -0.090 HD
ATOM     20  H   LIG d   1      -2.917  79.438 119.419  0.00  0.00    -0.090 HD
ATOM     21  H   LIG d   1      -3.701  79.735 120.826  0.00  0.00    -0.090 HD
ENDBRANCH   5  18
BRANCH   3  22
ATOM     22  C   LIG d   1      -8.066  80.920 118.140  0.00  0.00     0.382 C 
ATOM     23  O   LIG d   1      -8.558  81.390 117.085  0.00  0.00    -0.241 OA
ATOM     24  O   LIG d   1      -8.564  81.229 119.239  0.00  0.00    -0.241 OA
ENDBRANCH   3  22
TORSDOF 7
ENDMDL
MODEL 9
REMARK VINA RESULT:      -4.6     14.375     17.478
REMARK  7 active torsions:
REMARK  status: ('A' for Active; 'I' for Inactive)
REMARK    1  A    between atoms: C_2  and  C_3 
REMARK    2  A    between atoms: C_3  and  O_6 
REMARK    3  A    between atoms: C_3  and  C_4 
REMARK    4  A    between atoms: C_7  and  O_6 
REMARK    5  A    between atoms: C_9  and  C_10 
REMARK    6  A    between atoms: N_15  and  C_14 
REMARK    7  A    between atoms: N_20  and  C_19 
REMARK       I    between atoms: C_22  and  N_20 
ROOT
ATOM      1  C   LIG d   1      -5.543  92.697 119.736  0.00  0.00     0.161 C 
ATOM      2  C   LIG d   1      -4.416  91.930 119.395  0.00  0.00     0.016 C 
ATOM      3  C   LIG d   1      -4.185  91.421 118.096  0.00  0.00     0.038 C 
ATOM      4  C   LIG d   1      -4.995  91.775 117.007  0.00  0.00     0.028 C 
ATOM      5  C   LIG d   1      -6.423  92.133 117.405  0.00  0.00    -0.047 C 
ATOM      6  C   LIG d   1      -6.380  93.186 118.536  0.00  0.00     0.091 C 
ENDROOT
BRANCH   1   7
ATOM      7  O   LIG d   1      -5.144  93.813 120.557  0.00  0.00    -0.368 OA
BRANCH   7   8
ATOM      8  C   LIG d   1      -4.563  94.942 119.858  0.00  0.00     0.119 C 
BRANCH   8   9
ATOM      9  C   LIG d   1      -3.059  94.968 120.191  0.00  0.00     0.028 C 
ATOM     10  C   LIG d   1      -2.179  94.777 118.944  0.00  0.00     0.006 C 
ENDBRANCH   8   9
BRANCH   8  11
ATOM     11  C   LIG d   1      -5.118  96.268 120.386  0.00  0.00     0.028 C 
ATOM     12  C   LIG d   1      -4.882  97.439 119.419  0.00  0.00     0.006 C 
ENDBRANCH   8  11
ENDBRANCH   7   8
ENDBRANCH   1   7
BRANCH   6  13
ATOM     13  N   LIG d   1      -7.734  93.530 119.042  0.00  0.00    -0.311 N 
ATOM     14  C   LIG d   1      -8.284  94.735 118.905  0.00  0.00     0.210 C 
ATOM     15  C   LIG d   1      -9.680  94.882 119.517  0.00  0.00     0.109 C 
ATOM     16  O   LIG d   1      -7.761  95.687 118.307  0.00  0.00    -0.276 OA
ATOM     17  H   LIG d   1      -8.242  92.807 119.513  0.00  0.00     0.149 HD
ENDBRANCH   6  13
BRANCH   5  18
ATOM     18  N   LIG d   1      -7.116  92.613 116.194  0.00  0.00     0.381 N 
ATOM     19  H   LIG d   1      -6.520  93.237 115.688  0.00  0.00    -0.090 HD
ATOM     20  H   LIG d   1      -7.940  93.118 116.470  0.00  0.00    -0.090 HD
ATOM     21  H   LIG d   1      -7.368  91.841 115.617  0.00  0.00    -0.090 HD
ENDBRANCH   5  18
BRANCH   3  22
ATOM     22  C   LIG d   1      -3.156  90.516 117.885  0.00  0.00     0.382 C 
ATOM     23  O   LIG d   1      -3.378  89.284 117.968  0.00  0.00    -0.241 OA
ATOM     24  O   LIG d   1      -1.999  90.917 117.658  0.00  0.00    -0.241 OA
ENDBRANCH   3  22
TORSDOF 7
ENDMDL
