MODEL 1
REMARK VINA RESULT:      -5.7      0.000      0.000
REMARK  7 active torsions:
REMARK  status: ('A' for Active; 'I' for Inactive)
REMARK    1  A    between atoms: C_2  and  C_3 
REMARK    2  A    between atoms: C_3  and  O_6 
REMARK    3  A    between atoms: C_3  and  C_4 
REMARK    4  A    between atoms: C_7  and  O_6 
REMARK    5  A    between atoms: C_9  and  C_10 
REMARK    6  A    between atoms: N_15  and  C_14 
REMARK    7  A    between atoms: N_20  and  C_19 
REMARK       I    between atoms: C_22  and  N_20 
ROOT
ATOM      1  C   LIG d   1      -7.563  75.209 117.452  0.00  0.00     0.161 C 
ATOM      2  C   LIG d   1      -8.804  75.858 117.569  0.00  0.00     0.016 C 
ATOM      3  C   LIG d   1      -8.939  77.260 117.698  0.00  0.00     0.038 C 
ATOM      4  C   LIG d   1      -7.844  78.126 117.566  0.00  0.00     0.028 C 
ATOM      5  C   LIG d   1      -6.515  77.485 117.952  0.00  0.00    -0.047 C 
ATOM      6  C   LIG d   1      -6.365  76.146 117.194  0.00  0.00     0.091 C 
ENDROOT
BRANCH   1   7
ATOM      7  O   LIG d   1      -7.637  74.196 116.429  0.00  0.00    -0.368 OA
BRANCH   7   8
ATOM      8  C   LIG d   1      -7.776  72.831 116.893  0.00  0.00     0.119 C 
BRANCH   8   9
ATOM      9  C   LIG d   1      -6.679  71.995 116.207  0.00  0.00     0.028 C 
ATOM     10  C   LIG d   1      -6.080  72.705 114.981  0.00  0.00     0.006 C 
ENDBRANCH   8   9
BRANCH   8  11
ATOM     11  C   LIG d   1      -9.102  72.218 116.430  0.00  0.00     0.028 C 
ATOM     12  C   LIG d   1      -9.454  70.924 117.181  0.00  0.00     0.006 C 
ENDBRANCH   8  11
ENDBRANCH   7   8
ENDBRANCH   1   7
BRANCH   6  13
ATOM     13  N   LIG d   1      -5.130  75.413 117.578  0.00  0.00    -0.311 N 
ATOM     14  C   LIG d   1      -4.099  75.232 116.755  0.00  0.00     0.210 C 
ATOM     15  C   LIG d   1      -2.934  74.431 117.344  0.00  0.00     0.109 C 
ATOM     16  O   LIG d   1      -4.025  75.687 115.603  0.00  0.00    -0.276 OA
ATOM     17  H   LIG d   1      -5.093  75.037 118.505  0.00  0.00     0.149 HD
ENDBRANCH   6  13
BRANCH   5  18
ATOM     18  N   LIG d   1      -5.446  78.451 117.636  0.00  0.00     0.381 N 
ATOM     19  H   LIG d   1      -5.828  79.226 117.131  0.00  0.00    -0.090 HD
ATOM     20  H   LIG d   1      -4.762  78.001 117.053  0.00  0.00    -0.090 HD
ATOM     21  H   LIG d   1      -5.017  78.772 118.476  0.00  0.00    -0.090 HD
ENDBRANCH   5  18
BRANCH   3  22
ATOM     22  C   LIG d   1     -10.177  77.806 118.002  0.00  0.00     0.382 C 
ATOM     23  O   LIG d   1     -11.137  77.055 118.300  0.00  0.00    -0.241 OA
ATOM     24  O   LIG d   1     -10.358  79.036 117.938  0.00  0.00    -0.241 OA
ENDBRANCH   3  22
TORSDOF 7
ENDMDL
MODEL 2
REMARK VINA RESULT:      -5.4     15.265     17.360
REMARK  7 active torsions:
REMARK  status: ('A' for Active; 'I' for Inactive)
REMARK    1  A    between atoms: C_2  and  C_3 
REMARK    2  A    between atoms: C_3  and  O_6 
REMARK    3  A    between atoms: C_3  and  C_4 
REMARK    4  A    between atoms: C_7  and  O_6 
REMARK    5  A    between atoms: C_9  and  C_10 
REMARK    6  A    between atoms: N_15  and  C_14 
REMARK    7  A    between atoms: N_20  and  C_19 
REMARK       I    between atoms: C_22  and  N_20 
ROOT
ATOM      1  C   LIG d   1      -5.633  91.689 119.173  0.00  0.00     0.161 C 
ATOM      2  C   LIG d   1      -6.869  92.224 118.773  0.00  0.00     0.016 C 
ATOM      3  C   LIG d   1      -7.128  93.611 118.695  0.00  0.00     0.038 C 
ATOM      4  C   LIG d   1      -6.115  94.566 118.869  0.00  0.00     0.028 C 
ATOM      5  C   LIG d   1      -4.979  94.087 119.767  0.00  0.00    -0.047 C 
ATOM      6  C   LIG d   1      -4.483  92.714 119.260  0.00  0.00     0.091 C 
ENDROOT
BRANCH   1   7
ATOM      7  O   LIG d   1      -5.268  90.598 118.305  0.00  0.00    -0.368 OA
BRANCH   7   8
ATOM      8  C   LIG d   1      -4.599  90.961 117.072  0.00  0.00     0.119 C 
BRANCH   8   9
ATOM      9  C   LIG d   1      -5.498  90.508 115.906  0.00  0.00     0.028 C 
ATOM     10  C   LIG d   1      -6.180  91.689 115.197  0.00  0.00     0.006 C 
ENDBRANCH   8   9
BRANCH   8  11
ATOM     11  C   LIG d   1      -3.289  90.186 116.900  0.00  0.00     0.028 C 
ATOM     12  C   LIG d   1      -3.017  89.212 118.058  0.00  0.00     0.006 C 
ENDBRANCH   8  11
ENDBRANCH   7   8
ENDBRANCH   1   7
BRANCH   6  13
ATOM     13  N   LIG d   1      -3.429  92.134 120.132  0.00  0.00    -0.311 N 
ATOM     14  C   LIG d   1      -2.125  92.273 119.898  0.00  0.00     0.210 C 
ATOM     15  C   LIG d   1      -1.208  91.579 120.911  0.00  0.00     0.109 C 
ATOM     16  O   LIG d   1      -1.640  92.932 118.966  0.00  0.00    -0.276 OA
ATOM     17  H   LIG d   1      -3.733  91.610 120.929  0.00  0.00     0.149 HD
ENDBRANCH   6  13
BRANCH   5  18
ATOM     18  N   LIG d   1      -3.930  95.124 119.751  0.00  0.00     0.381 N 
ATOM     19  H   LIG d   1      -3.362  95.043 120.570  0.00  0.00    -0.090 HD
ATOM     20  H   LIG d   1      -4.367  96.028 119.757  0.00  0.00    -0.090 HD
ATOM     21  H   LIG d   1      -3.366  95.025 118.935  0.00  0.00    -0.090 HD
ENDBRANCH   5  18
BRANCH   3  22
ATOM     22  C   LIG d   1      -8.423  94.058 118.480  0.00  0.00     0.382 C 
ATOM     23  O   LIG d   1      -8.686  94.755 117.471  0.00  0.00    -0.241 OA
ATOM     24  O   LIG d   1      -9.323  93.809 119.305  0.00  0.00    -0.241 OA
ENDBRANCH   3  22
TORSDOF 7
ENDMDL
MODEL 3
REMARK VINA RESULT:      -5.3     14.931     17.576
REMARK  7 active torsions:
REMARK  status: ('A' for Active; 'I' for Inactive)
REMARK    1  A    between atoms: C_2  and  C_3 
REMARK    2  A    between atoms: C_3  and  O_6 
REMARK    3  A    between atoms: C_3  and  C_4 
REMARK    4  A    between atoms: C_7  and  O_6 
REMARK    5  A    between atoms: C_9  and  C_10 
REMARK    6  A    between atoms: N_15  and  C_14 
REMARK    7  A    between atoms: N_20  and  C_19 
REMARK       I    between atoms: C_22  and  N_20 
ROOT
ATOM      1  C   LIG d   1      -5.480  92.598 118.670  0.00  0.00     0.161 C 
ATOM      2  C   LIG d   1      -5.873  93.683 119.472  0.00  0.00     0.016 C 
ATOM      3  C   LIG d   1      -6.984  94.506 119.177  0.00  0.00     0.038 C 
ATOM      4  C   LIG d   1      -7.873  94.207 118.133  0.00  0.00     0.028 C 
ATOM      5  C   LIG d   1      -7.230  93.418 116.998  0.00  0.00    -0.047 C 
ATOM      6  C   LIG d   1      -6.503  92.189 117.589  0.00  0.00     0.091 C 
ENDROOT
BRANCH   1   7
ATOM      7  O   LIG d   1      -5.151  91.469 119.503  0.00  0.00    -0.368 OA
BRANCH   7   8
ATOM      8  C   LIG d   1      -3.740  91.231 119.726  0.00  0.00     0.119 C 
BRANCH   8   9
ATOM      9  C   LIG d   1      -2.963  91.999 118.639  0.00  0.00     0.028 C 
ATOM     10  C   LIG d   1      -1.784  92.800 119.215  0.00  0.00     0.006 C 
ENDBRANCH   8   9
BRANCH   8  11
ATOM     11  C   LIG d   1      -3.383  89.756 119.514  0.00  0.00     0.028 C 
ATOM     12  C   LIG d   1      -3.062  89.425 118.048  0.00  0.00     0.006 C 
ENDBRANCH   8  11
ENDBRANCH   7   8
ENDBRANCH   1   7
BRANCH   6  13
ATOM     13  N   LIG d   1      -5.776  91.408 116.555  0.00  0.00    -0.311 N 
ATOM     14  C   LIG d   1      -6.242  90.278 116.026  0.00  0.00     0.210 C 
ATOM     15  C   LIG d   1      -5.325  89.622 114.990  0.00  0.00     0.109 C 
ATOM     16  O   LIG d   1      -7.344  89.774 116.294  0.00  0.00    -0.276 OA
ATOM     17  H   LIG d   1      -4.888  91.762 116.257  0.00  0.00     0.149 HD
ENDBRANCH   6  13
BRANCH   5  18
ATOM     18  N   LIG d   1      -8.298  93.055 116.047  0.00  0.00     0.381 N 
ATOM     19  H   LIG d   1      -8.213  93.607 115.216  0.00  0.00    -0.090 HD
ATOM     20  H   LIG d   1      -9.188  93.254 116.467  0.00  0.00    -0.090 HD
ATOM     21  H   LIG d   1      -8.238  92.087 115.819  0.00  0.00    -0.090 HD
ENDBRANCH   5  18
BRANCH   3  22
ATOM     22  C   LIG d   1      -7.191  95.668 119.906  0.00  0.00     0.382 C 
ATOM     23  O   LIG d   1      -6.212  96.294 120.379  0.00  0.00    -0.241 OA
ATOM     24  O   LIG d   1      -8.347  96.072 120.134  0.00  0.00    -0.241 OA
ENDBRANCH   3  22
TORSDOF 7
ENDMDL
MODEL 4
REMARK VINA RESULT:      -5.1      1.844      4.776
REMARK  7 active torsions:
REMARK  status: ('A' for Active; 'I' for Inactive)
REMARK    1  A    between atoms: C_2  and  C_3 
REMARK    2  A    between atoms: C_3  and  O_6 
REMARK    3  A    between atoms: C_3  and  C_4 
REMARK    4  A    between atoms: C_7  and  O_6 
REMARK    5  A    between atoms: C_9  and  C_10 
REMARK    6  A    between atoms: N_15  and  C_14 
REMARK    7  A    between atoms: N_20  and  C_19 
REMARK       I    between atoms: C_22  and  N_20 
ROOT
ATOM      1  C   LIG d   1      -6.442  75.668 115.619  0.00  0.00     0.161 C 
ATOM      2  C   LIG d   1      -5.137  75.543 115.112  0.00  0.00     0.016 C 
ATOM      3  C   LIG d   1      -4.043  76.303 115.586  0.00  0.00     0.038 C 
ATOM      4  C   LIG d   1      -4.149  77.136 116.709  0.00  0.00     0.028 C 
ATOM      5  C   LIG d   1      -5.559  77.674 116.933  0.00  0.00    -0.047 C 
ATOM      6  C   LIG d   1      -6.555  76.491 116.919  0.00  0.00     0.091 C 
ENDROOT
BRANCH   1   7
ATOM      7  O   LIG d   1      -7.022  74.362 115.801  0.00  0.00    -0.368 OA
BRANCH   7   8
ATOM      8  C   LIG d   1      -6.655  73.665 117.017  0.00  0.00     0.119 C 
BRANCH   8   9
ATOM      9  C   LIG d   1      -6.015  72.325 116.607  0.00  0.00     0.028 C 
ATOM     10  C   LIG d   1      -6.219  72.008 115.116  0.00  0.00     0.006 C 
ENDBRANCH   8   9
BRANCH   8  11
ATOM     11  C   LIG d   1      -7.891  73.289 117.839  0.00  0.00     0.028 C 
ATOM     12  C   LIG d   1      -9.194  73.374 117.028  0.00  0.00     0.006 C 
ENDBRANCH   8  11
ENDBRANCH   7   8
ENDBRANCH   1   7
BRANCH   6  13
ATOM     13  N   LIG d   1      -7.967  76.938 117.047  0.00  0.00    -0.311 N 
ATOM     14  C   LIG d   1      -8.626  76.962 118.204  0.00  0.00     0.210 C 
ATOM     15  C   LIG d   1     -10.079  77.438 118.111  0.00  0.00     0.109 C 
ATOM     16  O   LIG d   1      -8.135  76.665 119.304  0.00  0.00    -0.276 OA
ATOM     17  H   LIG d   1      -8.432  77.226 116.208  0.00  0.00     0.149 HD
ENDBRANCH   6  13
BRANCH   5  18
ATOM     18  N   LIG d   1      -5.557  78.412 118.210  0.00  0.00     0.381 N 
ATOM     19  H   LIG d   1      -6.066  77.897 118.900  0.00  0.00    -0.090 HD
ATOM     20  H   LIG d   1      -6.015  79.296 118.075  0.00  0.00    -0.090 HD
ATOM     21  H   LIG d   1      -4.621  78.558 118.518  0.00  0.00    -0.090 HD
ENDBRANCH   5  18
BRANCH   3  22
ATOM     22  C   LIG d   1      -2.834  76.262 114.908  0.00  0.00     0.382 C 
ATOM     23  O   LIG d   1      -2.575  75.302 114.144  0.00  0.00    -0.241 OA
ATOM     24  O   LIG d   1      -1.980  77.152 115.086  0.00  0.00    -0.241 OA
ENDBRANCH   3  22
TORSDOF 7
ENDMDL
MODEL 5
REMARK VINA RESULT:      -5.1      2.166      4.617
REMARK  7 active torsions:
REMARK  status: ('A' for Active; 'I' for Inactive)
REMARK    1  A    between atoms: C_2  and  C_3 
REMARK    2  A    between atoms: C_3  and  O_6 
REMARK    3  A    between atoms: C_3  and  C_4 
REMARK    4  A    between atoms: C_7  and  O_6 
REMARK    5  A    between atoms: C_9  and  C_10 
REMARK    6  A    between atoms: N_15  and  C_14 
REMARK    7  A    between atoms: N_20  and  C_19 
REMARK       I    between atoms: C_22  and  N_20 
ROOT
ATOM      1  C   LIG d   1      -7.115  75.905 116.801  0.00  0.00     0.161 C 
ATOM      2  C   LIG d   1      -6.460  75.388 115.671  0.00  0.00     0.016 C 
ATOM      3  C   LIG d   1      -5.056  75.409 115.508  0.00  0.00     0.038 C 
ATOM      4  C   LIG d   1      -4.196  75.814 116.539  0.00  0.00     0.028 C 
ATOM      5  C   LIG d   1      -4.831  76.812 117.501  0.00  0.00    -0.047 C 
ATOM      6  C   LIG d   1      -6.187  76.249 117.985  0.00  0.00     0.091 C 
ENDROOT
BRANCH   1   7
ATOM      7  O   LIG d   1      -8.150  74.995 117.224  0.00  0.00    -0.368 OA
BRANCH   7   8
ATOM      8  C   LIG d   1      -8.032  73.631 116.750  0.00  0.00     0.119 C 
BRANCH   8   9
ATOM      9  C   LIG d   1      -9.443  73.011 116.769  0.00  0.00     0.028 C 
ATOM     10  C   LIG d   1      -9.410  71.475 116.704  0.00  0.00     0.006 C 
ENDBRANCH   8   9
BRANCH   8  11
ATOM     11  C   LIG d   1      -7.201  72.776 117.712  0.00  0.00     0.028 C 
ATOM     12  C   LIG d   1      -6.029  72.066 117.018  0.00  0.00     0.006 C 
ENDBRANCH   8  11
ENDBRANCH   7   8
ENDBRANCH   1   7
BRANCH   6  13
ATOM     13  N   LIG d   1      -6.915  77.201 118.864  0.00  0.00    -0.311 N 
ATOM     14  C   LIG d   1      -7.523  76.838 119.992  0.00  0.00     0.210 C 
ATOM     15  C   LIG d   1      -8.232  77.973 120.738  0.00  0.00     0.109 C 
ATOM     16  O   LIG d   1      -7.517  75.690 120.462  0.00  0.00    -0.276 OA
ATOM     17  H   LIG d   1      -6.943  78.159 118.575  0.00  0.00     0.149 HD
ENDBRANCH   6  13
BRANCH   5  18
ATOM     18  N   LIG d   1      -3.875  77.042 118.601  0.00  0.00     0.381 N 
ATOM     19  H   LIG d   1      -2.954  76.785 118.308  0.00  0.00    -0.090 HD
ATOM     20  H   LIG d   1      -4.131  76.463 119.381  0.00  0.00    -0.090 HD
ATOM     21  H   LIG d   1      -3.890  78.001 118.871  0.00  0.00    -0.090 HD
ENDBRANCH   5  18
BRANCH   3  22
ATOM     22  C   LIG d   1      -4.500  75.059 114.286  0.00  0.00     0.382 C 
ATOM     23  O   LIG d   1      -4.946  74.070 113.656  0.00  0.00    -0.241 OA
ATOM     24  O   LIG d   1      -3.531  75.692 113.828  0.00  0.00    -0.241 OA
ENDBRANCH   3  22
TORSDOF 7
ENDMDL
MODEL 6
REMARK VINA RESULT:      -4.9      2.293      4.985
REMARK  7 active torsions:
REMARK  status: ('A' for Active; 'I' for Inactive)
REMARK    1  A    between atoms: C_2  and  C_3 
REMARK    2  A    between atoms: C_3  and  O_6 
REMARK    3  A    between atoms: C_3  and  C_4 
REMARK    4  A    between atoms: C_7  and  O_6 
REMARK    5  A    between atoms: C_9  and  C_10 
REMARK    6  A    between atoms: N_15  and  C_14 
REMARK    7  A    between atoms: N_20  and  C_19 
REMARK       I    between atoms: C_22  and  N_20 
ROOT
ATOM      1  C   LIG d   1      -5.759  75.454 117.786  0.00  0.00     0.161 C 
ATOM      2  C   LIG d   1      -5.933  74.132 117.344  0.00  0.00     0.016 C 
ATOM      3  C   LIG d   1      -7.173  73.614 116.904  0.00  0.00     0.038 C 
ATOM      4  C   LIG d   1      -8.298  74.434 116.730  0.00  0.00     0.028 C 
ATOM      5  C   LIG d   1      -8.302  75.657 117.640  0.00  0.00    -0.047 C 
ATOM      6  C   LIG d   1      -6.950  76.393 117.499  0.00  0.00     0.091 C 
ENDROOT
BRANCH   1   7
ATOM      7  O   LIG d   1      -4.546  75.999 117.230  0.00  0.00    -0.368 OA
BRANCH   7   8
ATOM      8  C   LIG d   1      -3.920  75.221 116.181  0.00  0.00     0.119 C 
BRANCH   8   9
ATOM      9  C   LIG d   1      -2.404  75.204 116.459  0.00  0.00     0.028 C 
ATOM     10  C   LIG d   1      -2.042  74.349 117.685  0.00  0.00     0.006 C 
ENDBRANCH   8   9
BRANCH   8  11
ATOM     11  C   LIG d   1      -4.074  75.899 114.816  0.00  0.00     0.028 C 
ATOM     12  C   LIG d   1      -4.950  75.092 113.846  0.00  0.00     0.006 C 
ENDBRANCH   8  11
ENDBRANCH   7   8
ENDBRANCH   1   7
BRANCH   6  13
ATOM     13  N   LIG d   1      -6.838  77.555 118.418  0.00  0.00    -0.311 N 
ATOM     14  C   LIG d   1      -6.419  78.759 118.030  0.00  0.00     0.210 C 
ATOM     15  C   LIG d   1      -6.359  79.811 119.142  0.00  0.00     0.109 C 
ATOM     16  O   LIG d   1      -6.122  79.063 116.865  0.00  0.00    -0.276 OA
ATOM     17  H   LIG d   1      -7.088  77.405 119.376  0.00  0.00     0.149 HD
ENDBRANCH   6  13
BRANCH   5  18
ATOM     18  N   LIG d   1      -9.457  76.492 117.259  0.00  0.00     0.381 N 
ATOM     19  H   LIG d   1      -9.137  77.374 116.911  0.00  0.00    -0.090 HD
ATOM     20  H   LIG d   1     -10.020  76.660 118.074  0.00  0.00    -0.090 HD
ATOM     21  H   LIG d   1      -9.998  76.029 116.563  0.00  0.00    -0.090 HD
ENDBRANCH   5  18
BRANCH   3  22
ATOM     22  C   LIG d   1      -7.306  72.254 116.669  0.00  0.00     0.382 C 
ATOM     23  O   LIG d   1      -8.259  71.828 115.974  0.00  0.00    -0.241 OA
ATOM     24  O   LIG d   1      -6.509  71.444 117.180  0.00  0.00    -0.241 OA
ENDBRANCH   3  22
TORSDOF 7
ENDMDL
MODEL 7
REMARK VINA RESULT:      -4.9      2.271      4.969
REMARK  7 active torsions:
REMARK  status: ('A' for Active; 'I' for Inactive)
REMARK    1  A    between atoms: C_2  and  C_3 
REMARK    2  A    between atoms: C_3  and  O_6 
REMARK    3  A    between atoms: C_3  and  C_4 
REMARK    4  A    between atoms: C_7  and  O_6 
REMARK    5  A    between atoms: C_9  and  C_10 
REMARK    6  A    between atoms: N_15  and  C_14 
REMARK    7  A    between atoms: N_20  and  C_19 
REMARK       I    between atoms: C_22  and  N_20 
ROOT
ATOM      1  C   LIG d   1      -6.499  76.905 117.204  0.00  0.00     0.161 C 
ATOM      2  C   LIG d   1      -7.017  75.637 116.894  0.00  0.00     0.016 C 
ATOM      3  C   LIG d   1      -8.379  75.292 117.054  0.00  0.00     0.038 C 
ATOM      4  C   LIG d   1      -9.350  76.246 117.395  0.00  0.00     0.028 C 
ATOM      5  C   LIG d   1      -8.795  77.413 118.204  0.00  0.00    -0.047 C 
ATOM      6  C   LIG d   1      -7.563  77.991 117.471  0.00  0.00     0.091 C 
ENDROOT
BRANCH   1   7
ATOM      7  O   LIG d   1      -5.598  77.333 116.163  0.00  0.00    -0.368 OA
BRANCH   7   8
ATOM      8  C   LIG d   1      -4.533  76.411 115.824  0.00  0.00     0.119 C 
BRANCH   8   9
ATOM      9  C   LIG d   1      -3.199  77.091 116.189  0.00  0.00     0.028 C 
ATOM     10  C   LIG d   1      -2.765  78.130 115.142  0.00  0.00     0.006 C 
ENDBRANCH   8   9
BRANCH   8  11
ATOM     11  C   LIG d   1      -4.466  76.169 114.313  0.00  0.00     0.028 C 
ATOM     12  C   LIG d   1      -4.914  74.754 113.916  0.00  0.00     0.006 C 
ENDBRANCH   8  11
ENDBRANCH   7   8
ENDBRANCH   1   7
BRANCH   6  13
ATOM     13  N   LIG d   1      -6.908  79.083 118.238  0.00  0.00    -0.311 N 
ATOM     14  C   LIG d   1      -7.237  80.367 118.110  0.00  0.00     0.210 C 
ATOM     15  C   LIG d   1      -6.424  81.332 118.979  0.00  0.00     0.109 C 
ATOM     16  O   LIG d   1      -8.147  80.796 117.384  0.00  0.00    -0.276 OA
ATOM     17  H   LIG d   1      -6.180  78.821 118.873  0.00  0.00     0.149 HD
ENDBRANCH   6  13
BRANCH   5  18
ATOM     18  N   LIG d   1      -9.882  78.396 118.372  0.00  0.00     0.381 N 
ATOM     19  H   LIG d   1     -10.436  78.434 117.539  0.00  0.00    -0.090 HD
ATOM     20  H   LIG d   1      -9.479  79.304 118.524  0.00  0.00    -0.090 HD
ATOM     21  H   LIG d   1     -10.453  78.144 119.148  0.00  0.00    -0.090 HD
ENDBRANCH   5  18
BRANCH   3  22
ATOM     22  C   LIG d   1      -8.775  73.971 116.911  0.00  0.00     0.382 C 
ATOM     23  O   LIG d   1      -8.011  73.144 116.359  0.00  0.00    -0.241 OA
ATOM     24  O   LIG d   1      -9.905  73.606 117.287  0.00  0.00    -0.241 OA
ENDBRANCH   3  22
TORSDOF 7
ENDMDL
MODEL 8
REMARK VINA RESULT:      -4.9     14.677     17.006
REMARK  7 active torsions:
REMARK  status: ('A' for Active; 'I' for Inactive)
REMARK    1  A    between atoms: C_2  and  C_3 
REMARK    2  A    between atoms: C_3  and  O_6 
REMARK    3  A    between atoms: C_3  and  C_4 
REMARK    4  A    between atoms: C_7  and  O_6 
REMARK    5  A    between atoms: C_9  and  C_10 
REMARK    6  A    between atoms: N_15  and  C_14 
REMARK    7  A    between atoms: N_20  and  C_19 
REMARK       I    between atoms: C_22  and  N_20 
ROOT
ATOM      1  C   LIG d   1      -4.668  91.863 118.092  0.00  0.00     0.161 C 
ATOM      2  C   LIG d   1      -4.203  92.649 119.160  0.00  0.00     0.016 C 
ATOM      3  C   LIG d   1      -4.978  93.655 119.781  0.00  0.00     0.038 C 
ATOM      4  C   LIG d   1      -6.334  93.842 119.473  0.00  0.00     0.028 C 
ATOM      5  C   LIG d   1      -6.698  93.415 118.055  0.00  0.00    -0.047 C 
ATOM      6  C   LIG d   1      -6.182  91.977 117.816  0.00  0.00     0.091 C 
ENDROOT
BRANCH   1   7
ATOM      7  O   LIG d   1      -4.299  90.486 118.302  0.00  0.00    -0.368 OA
BRANCH   7   8
ATOM      8  C   LIG d   1      -2.881  90.192 118.257  0.00  0.00     0.119 C 
BRANCH   8   9
ATOM      9  C   LIG d   1      -2.683  89.014 117.283  0.00  0.00     0.028 C 
ATOM     10  C   LIG d   1      -1.219  88.546 117.219  0.00  0.00     0.006 C 
ENDBRANCH   8   9
BRANCH   8  11
ATOM     11  C   LIG d   1      -2.373  89.688 119.611  0.00  0.00     0.028 C 
ATOM     12  C   LIG d   1      -3.249  88.568 120.197  0.00  0.00     0.006 C 
ENDBRANCH   8  11
ENDBRANCH   7   8
ENDBRANCH   1   7
BRANCH   6  13
ATOM     13  N   LIG d   1      -6.422  91.513 116.425  0.00  0.00    -0.311 N 
ATOM     14  C   LIG d   1      -7.217  90.488 116.122  0.00  0.00     0.210 C 
ATOM     15  C   LIG d   1      -7.310  90.162 114.628  0.00  0.00     0.109 C 
ATOM     16  O   LIG d   1      -7.880  89.839 116.945  0.00  0.00    -0.276 OA
ATOM     17  H   LIG d   1      -5.948  92.003 115.692  0.00  0.00     0.149 HD
ENDBRANCH   6  13
BRANCH   5  18
ATOM     18  N   LIG d   1      -8.161  93.534 117.916  0.00  0.00     0.381 N 
ATOM     19  H   LIG d   1      -8.583  92.630 117.985  0.00  0.00    -0.090 HD
ATOM     20  H   LIG d   1      -8.372  93.911 117.009  0.00  0.00    -0.090 HD
ATOM     21  H   LIG d   1      -8.524  94.133 118.625  0.00  0.00    -0.090 HD
ENDBRANCH   5  18
BRANCH   3  22
ATOM     22  C   LIG d   1      -4.385  94.514 120.694  0.00  0.00     0.382 C 
ATOM     23  O   LIG d   1      -4.861  95.660 120.877  0.00  0.00    -0.241 OA
ATOM     24  O   LIG d   1      -3.355  94.173 121.305  0.00  0.00    -0.241 OA
ENDBRANCH   3  22
TORSDOF 7
ENDMDL
MODEL 9
REMARK VINA RESULT:      -4.7      2.056      4.806
REMARK  7 active torsions:
REMARK  status: ('A' for Active; 'I' for Inactive)
REMARK    1  A    between atoms: C_2  and  C_3 
REMARK    2  A    between atoms: C_3  and  O_6 
REMARK    3  A    between atoms: C_3  and  C_4 
REMARK    4  A    between atoms: C_7  and  O_6 
REMARK    5  A    between atoms: C_9  and  C_10 
REMARK    6  A    between atoms: N_15  and  C_14 
REMARK    7  A    between atoms: N_20  and  C_19 
REMARK       I    between atoms: C_22  and  N_20 
ROOT
ATOM      1  C   LIG d   1      -7.239  76.597 116.853  0.00  0.00     0.161 C 
ATOM      2  C   LIG d   1      -8.166  75.544 116.929  0.00  0.00     0.016 C 
ATOM      3  C   LIG d   1      -7.793  74.184 117.021  0.00  0.00     0.038 C 
ATOM      4  C   LIG d   1      -6.458  73.791 117.197  0.00  0.00     0.028 C 
ATOM      5  C   LIG d   1      -5.454  74.784 116.620  0.00  0.00    -0.047 C 
ATOM      6  C   LIG d   1      -5.780  76.196 117.156  0.00  0.00     0.091 C 
ENDROOT
BRANCH   1   7
ATOM      7  O   LIG d   1      -7.652  77.675 117.717  0.00  0.00    -0.368 OA
BRANCH   7   8
ATOM      8  C   LIG d   1      -8.833  77.431 118.520  0.00  0.00     0.119 C 
BRANCH   8   9
ATOM      9  C   LIG d   1      -9.899  78.460 118.100  0.00  0.00     0.028 C 
ATOM     10  C   LIG d   1      -9.377  79.906 118.164  0.00  0.00     0.006 C 
ENDBRANCH   8   9
BRANCH   8  11
ATOM     11  C   LIG d   1      -8.564  77.707 120.003  0.00  0.00     0.028 C 
ATOM     12  C   LIG d   1      -7.246  77.088 120.495  0.00  0.00     0.006 C 
ENDBRANCH   8  11
ENDBRANCH   7   8
ENDBRANCH   1   7
BRANCH   6  13
ATOM     13  N   LIG d   1      -4.897  77.241 116.575  0.00  0.00    -0.311 N 
ATOM     14  C   LIG d   1      -3.780  77.667 117.163  0.00  0.00     0.210 C 
ATOM     15  C   LIG d   1      -3.028  78.765 116.404  0.00  0.00     0.109 C 
ATOM     16  O   LIG d   1      -3.325  77.218 118.225  0.00  0.00    -0.276 OA
ATOM     17  H   LIG d   1      -5.175  77.637 115.699  0.00  0.00     0.149 HD
ENDBRANCH   6  13
BRANCH   5  18
ATOM     18  N   LIG d   1      -4.104  74.320 116.994  0.00  0.00     0.381 N 
ATOM     19  H   LIG d   1      -3.574  75.084 117.364  0.00  0.00    -0.090 HD
ATOM     20  H   LIG d   1      -3.637  73.981 116.172  0.00  0.00    -0.090 HD
ATOM     21  H   LIG d   1      -4.169  73.593 117.672  0.00  0.00    -0.090 HD
ENDBRANCH   5  18
BRANCH   3  22
ATOM     22  C   LIG d   1      -8.759  73.196 116.896  0.00  0.00     0.382 C 
ATOM     23  O   LIG d   1      -8.528  72.178 116.200  0.00  0.00    -0.241 OA
ATOM     24  O   LIG d   1      -9.873  73.331 117.435  0.00  0.00    -0.241 OA
ENDBRANCH   3  22
TORSDOF 7
ENDMDL
