MODEL 1
REMARK VINA RESULT:      -6.2      0.000      0.000
REMARK  7 active torsions:
REMARK  status: ('A' for Active; 'I' for Inactive)
REMARK    1  A    between atoms: C_2  and  C_3 
REMARK    2  A    between atoms: C_3  and  O_6 
REMARK    3  A    between atoms: C_3  and  C_4 
REMARK    4  A    between atoms: C_7  and  O_6 
REMARK    5  A    between atoms: C_9  and  C_10 
REMARK    6  A    between atoms: N_15  and  C_14 
REMARK    7  A    between atoms: N_20  and  C_19 
REMARK       I    between atoms: C_22  and  N_20 
ROOT
ATOM      1  C   LIG d   1      -6.269  75.126 116.086  0.00  0.00     0.161 C 
ATOM      2  C   LIG d   1      -5.111  74.491 115.607  0.00  0.00     0.016 C 
ATOM      3  C   LIG d   1      -3.825  75.076 115.660  0.00  0.00     0.038 C 
ATOM      4  C   LIG d   1      -3.586  76.281 116.337  0.00  0.00     0.028 C 
ATOM      5  C   LIG d   1      -4.804  77.197 116.393  0.00  0.00    -0.047 C 
ATOM      6  C   LIG d   1      -6.011  76.393 116.928  0.00  0.00     0.091 C 
ENDROOT
BRANCH   1   7
ATOM      7  O   LIG d   1      -7.070  74.185 116.828  0.00  0.00    -0.368 OA
BRANCH   7   8
ATOM      8  C   LIG d   1      -8.134  73.534 116.092  0.00  0.00     0.119 C 
BRANCH   8   9
ATOM      9  C   LIG d   1      -9.422  73.662 116.929  0.00  0.00     0.028 C 
ATOM     10  C   LIG d   1     -10.154  74.992 116.679  0.00  0.00     0.006 C 
ENDBRANCH   8   9
BRANCH   8  11
ATOM     11  C   LIG d   1      -7.883  72.028 115.964  0.00  0.00     0.028 C 
ATOM     12  C   LIG d   1      -9.096  71.184 116.383  0.00  0.00     0.006 C 
ENDBRANCH   8  11
ENDBRANCH   7   8
ENDBRANCH   1   7
BRANCH   6  13
ATOM     13  N   LIG d   1      -7.265  77.191 116.935  0.00  0.00    -0.311 N 
ATOM     14  C   LIG d   1      -7.680  77.895 117.987  0.00  0.00     0.210 C 
ATOM     15  C   LIG d   1      -9.010  78.630 117.790  0.00  0.00     0.109 C 
ATOM     16  O   LIG d   1      -7.056  78.008 119.053  0.00  0.00    -0.276 OA
ATOM     17  H   LIG d   1      -7.817  77.181 116.100  0.00  0.00     0.149 HD
ENDBRANCH   6  13
BRANCH   5  18
ATOM     18  N   LIG d   1      -4.456  78.351 117.243  0.00  0.00     0.381 N 
ATOM     19  H   LIG d   1      -5.264  78.923 117.386  0.00  0.00    -0.090 HD
ATOM     20  H   LIG d   1      -3.758  78.901 116.774  0.00  0.00    -0.090 HD
ATOM     21  H   LIG d   1      -4.105  78.035 118.121  0.00  0.00    -0.090 HD
ENDBRANCH   5  18
BRANCH   3  22
ATOM     22  C   LIG d   1      -2.768  74.473 114.996  0.00  0.00     0.382 C 
ATOM     23  O   LIG d   1      -1.817  73.979 115.649  0.00  0.00    -0.241 OA
ATOM     24  O   LIG d   1      -2.731  74.455 113.751  0.00  0.00    -0.241 OA
ENDBRANCH   3  22
TORSDOF 7
ENDMDL
MODEL 2
REMARK VINA RESULT:      -6.2      1.640      5.112
REMARK  7 active torsions:
REMARK  status: ('A' for Active; 'I' for Inactive)
REMARK    1  A    between atoms: C_2  and  C_3 
REMARK    2  A    between atoms: C_3  and  O_6 
REMARK    3  A    between atoms: C_3  and  C_4 
REMARK    4  A    between atoms: C_7  and  O_6 
REMARK    5  A    between atoms: C_9  and  C_10 
REMARK    6  A    between atoms: N_15  and  C_14 
REMARK    7  A    between atoms: N_20  and  C_19 
REMARK       I    between atoms: C_22  and  N_20 
ROOT
ATOM      1  C   LIG d   1      -7.337  76.364 117.312  0.00  0.00     0.161 C 
ATOM      2  C   LIG d   1      -8.357  77.292 117.582  0.00  0.00     0.016 C 
ATOM      3  C   LIG d   1      -8.143  78.688 117.642  0.00  0.00     0.038 C 
ATOM      4  C   LIG d   1      -6.916  79.266 117.283  0.00  0.00     0.028 C 
ATOM      5  C   LIG d   1      -5.725  78.338 117.494  0.00  0.00    -0.047 C 
ATOM      6  C   LIG d   1      -6.016  76.984 116.809  0.00  0.00     0.091 C 
ENDROOT
BRANCH   1   7
ATOM      7  O   LIG d   1      -7.812  75.373 116.380  0.00  0.00    -0.368 OA
BRANCH   7   8
ATOM      8  C   LIG d   1      -7.851  74.008 116.866  0.00  0.00     0.119 C 
BRANCH   8   9
ATOM      9  C   LIG d   1      -7.113  73.130 115.837  0.00  0.00     0.028 C 
ATOM     10  C   LIG d   1      -7.613  71.675 115.842  0.00  0.00     0.006 C 
ENDBRANCH   8   9
BRANCH   8  11
ATOM     11  C   LIG d   1      -9.285  73.471 116.904  0.00  0.00     0.028 C 
ATOM     12  C   LIG d   1     -10.331  74.542 116.556  0.00  0.00     0.006 C 
ENDBRANCH   8  11
ENDBRANCH   7   8
ENDBRANCH   1   7
BRANCH   6  13
ATOM     13  N   LIG d   1      -4.936  75.989 117.039  0.00  0.00    -0.311 N 
ATOM     14  C   LIG d   1      -4.260  75.400 116.054  0.00  0.00     0.210 C 
ATOM     15  C   LIG d   1      -3.202  74.390 116.509  0.00  0.00     0.109 C 
ATOM     16  O   LIG d   1      -4.414  75.642 114.847  0.00  0.00    -0.276 OA
ATOM     17  H   LIG d   1      -4.724  75.757 117.990  0.00  0.00     0.149 HD
ENDBRANCH   6  13
BRANCH   5  18
ATOM     18  N   LIG d   1      -4.531  79.015 116.953  0.00  0.00     0.381 N 
ATOM     19  H   LIG d   1      -3.921  79.278 117.701  0.00  0.00    -0.090 HD
ATOM     20  H   LIG d   1      -4.820  79.850 116.474  0.00  0.00    -0.090 HD
ATOM     21  H   LIG d   1      -4.053  78.411 116.322  0.00  0.00    -0.090 HD
ENDBRANCH   5  18
BRANCH   3  22
ATOM     22  C   LIG d   1      -9.153  79.519 118.102  0.00  0.00     0.382 C 
ATOM     23  O   LIG d   1      -8.875  80.662 118.539  0.00  0.00    -0.241 OA
ATOM     24  O   LIG d   1     -10.334  79.123 118.128  0.00  0.00    -0.241 OA
ENDBRANCH   3  22
TORSDOF 7
ENDMDL
MODEL 3
REMARK VINA RESULT:      -6.0      0.787      1.626
REMARK  7 active torsions:
REMARK  status: ('A' for Active; 'I' for Inactive)
REMARK    1  A    between atoms: C_2  and  C_3 
REMARK    2  A    between atoms: C_3  and  O_6 
REMARK    3  A    between atoms: C_3  and  C_4 
REMARK    4  A    between atoms: C_7  and  O_6 
REMARK    5  A    between atoms: C_9  and  C_10 
REMARK    6  A    between atoms: N_15  and  C_14 
REMARK    7  A    between atoms: N_20  and  C_19 
REMARK       I    between atoms: C_22  and  N_20 
ROOT
ATOM      1  C   LIG d   1      -6.021  75.596 115.326  0.00  0.00     0.161 C 
ATOM      2  C   LIG d   1      -4.886  74.885 114.902  0.00  0.00     0.016 C 
ATOM      3  C   LIG d   1      -3.634  74.956 115.555  0.00  0.00     0.038 C 
ATOM      4  C   LIG d   1      -3.472  75.631 116.774  0.00  0.00     0.028 C 
ATOM      5  C   LIG d   1      -4.461  76.775 116.970  0.00  0.00    -0.047 C 
ATOM      6  C   LIG d   1      -5.892  76.249 116.717  0.00  0.00     0.091 C 
ENDROOT
BRANCH   1   7
ATOM      7  O   LIG d   1      -7.179  74.739 115.280  0.00  0.00    -0.368 OA
BRANCH   7   8
ATOM      8  C   LIG d   1      -7.306  73.780 116.358  0.00  0.00     0.119 C 
BRANCH   8   9
ATOM      9  C   LIG d   1      -7.263  72.372 115.734  0.00  0.00     0.028 C 
ATOM     10  C   LIG d   1      -8.460  71.505 116.158  0.00  0.00     0.006 C 
ENDBRANCH   8   9
BRANCH   8  11
ATOM     11  C   LIG d   1      -8.676  73.881 117.036  0.00  0.00     0.028 C 
ATOM     12  C   LIG d   1      -9.579  74.948 116.397  0.00  0.00     0.006 C 
ENDBRANCH   8  11
ENDBRANCH   7   8
ENDBRANCH   1   7
BRANCH   6  13
ATOM     13  N   LIG d   1      -6.915  77.324 116.806  0.00  0.00    -0.311 N 
ATOM     14  C   LIG d   1      -7.505  77.683 117.944  0.00  0.00     0.210 C 
ATOM     15  C   LIG d   1      -8.545  78.800 117.810  0.00  0.00     0.109 C 
ATOM     16  O   LIG d   1      -7.243  77.204 119.058  0.00  0.00    -0.276 OA
ATOM     17  H   LIG d   1      -7.164  77.787 115.954  0.00  0.00     0.149 HD
ENDBRANCH   6  13
BRANCH   5  18
ATOM     18  N   LIG d   1      -4.270  77.301 118.335  0.00  0.00     0.381 N 
ATOM     19  H   LIG d   1      -4.601  78.244 118.384  0.00  0.00    -0.090 HD
ATOM     20  H   LIG d   1      -3.289  77.299 118.550  0.00  0.00    -0.090 HD
ATOM     21  H   LIG d   1      -4.762  76.734 118.990  0.00  0.00    -0.090 HD
ENDBRANCH   5  18
BRANCH   3  22
ATOM     22  C   LIG d   1      -2.518  74.381 114.967  0.00  0.00     0.382 C 
ATOM     23  O   LIG d   1      -1.610  73.897 115.686  0.00  0.00    -0.241 OA
ATOM     24  O   LIG d   1      -2.387  74.378 113.729  0.00  0.00    -0.241 OA
ENDBRANCH   3  22
TORSDOF 7
ENDMDL
MODEL 4
REMARK VINA RESULT:      -5.9      2.008      5.179
REMARK  7 active torsions:
REMARK  status: ('A' for Active; 'I' for Inactive)
REMARK    1  A    between atoms: C_2  and  C_3 
REMARK    2  A    between atoms: C_3  and  O_6 
REMARK    3  A    between atoms: C_3  and  C_4 
REMARK    4  A    between atoms: C_7  and  O_6 
REMARK    5  A    between atoms: C_9  and  C_10 
REMARK    6  A    between atoms: N_15  and  C_14 
REMARK    7  A    between atoms: N_20  and  C_19 
REMARK       I    between atoms: C_22  and  N_20 
ROOT
ATOM      1  C   LIG d   1      -5.370  74.856 116.393  0.00  0.00     0.161 C 
ATOM      2  C   LIG d   1      -6.087  73.690 116.079  0.00  0.00     0.016 C 
ATOM      3  C   LIG d   1      -7.499  73.619 116.086  0.00  0.00     0.038 C 
ATOM      4  C   LIG d   1      -8.298  74.759 116.262  0.00  0.00     0.028 C 
ATOM      5  C   LIG d   1      -7.619  75.853 117.081  0.00  0.00    -0.047 C 
ATOM      6  C   LIG d   1      -6.224  76.138 116.479  0.00  0.00     0.091 C 
ENDROOT
BRANCH   1   7
ATOM      7  O   LIG d   1      -4.292  75.035 115.452  0.00  0.00    -0.368 OA
BRANCH   7   8
ATOM      8  C   LIG d   1      -3.022  74.440 115.817  0.00  0.00     0.119 C 
BRANCH   8   9
ATOM      9  C   LIG d   1      -2.702  74.880 117.259  0.00  0.00     0.028 C 
ATOM     10  C   LIG d   1      -1.644  73.985 117.924  0.00  0.00     0.006 C 
ENDBRANCH   8   9
BRANCH   8  11
ATOM     11  C   LIG d   1      -1.880  74.995 114.960  0.00  0.00     0.028 C 
ATOM     12  C   LIG d   1      -1.159  73.905 114.151  0.00  0.00     0.006 C 
ENDBRANCH   8  11
ENDBRANCH   7   8
ENDBRANCH   1   7
BRANCH   6  13
ATOM     13  N   LIG d   1      -5.459  77.137 117.270  0.00  0.00    -0.311 N 
ATOM     14  C   LIG d   1      -4.755  78.124 116.719  0.00  0.00     0.210 C 
ATOM     15  C   LIG d   1      -4.024  79.030 117.715  0.00  0.00     0.109 C 
ATOM     16  O   LIG d   1      -4.693  78.355 115.503  0.00  0.00    -0.276 OA
ATOM     17  H   LIG d   1      -5.480  77.042 118.266  0.00  0.00     0.149 HD
ENDBRANCH   6  13
BRANCH   5  18
ATOM     18  N   LIG d   1      -8.506  77.032 117.069  0.00  0.00     0.381 N 
ATOM     19  H   LIG d   1      -9.410  76.773 116.729  0.00  0.00    -0.090 HD
ATOM     20  H   LIG d   1      -8.121  77.722 116.449  0.00  0.00    -0.090 HD
ATOM     21  H   LIG d   1      -8.584  77.408 117.988  0.00  0.00    -0.090 HD
ENDBRANCH   5  18
BRANCH   3  22
ATOM     22  C   LIG d   1      -8.126  72.390 115.955  0.00  0.00     0.382 C 
ATOM     23  O   LIG d   1      -7.493  71.408 115.498  0.00  0.00    -0.241 OA
ATOM     24  O   LIG d   1      -9.331  72.261 116.246  0.00  0.00    -0.241 OA
ENDBRANCH   3  22
TORSDOF 7
ENDMDL
MODEL 5
REMARK VINA RESULT:      -5.6      2.378      5.858
REMARK  7 active torsions:
REMARK  status: ('A' for Active; 'I' for Inactive)
REMARK    1  A    between atoms: C_2  and  C_3 
REMARK    2  A    between atoms: C_3  and  O_6 
REMARK    3  A    between atoms: C_3  and  C_4 
REMARK    4  A    between atoms: C_7  and  O_6 
REMARK    5  A    between atoms: C_9  and  C_10 
REMARK    6  A    between atoms: N_15  and  C_14 
REMARK    7  A    between atoms: N_20  and  C_19 
REMARK       I    between atoms: C_22  and  N_20 
ROOT
ATOM      1  C   LIG d   1      -6.797  76.174 115.775  0.00  0.00     0.161 C 
ATOM      2  C   LIG d   1      -8.161  76.192 116.110  0.00  0.00     0.016 C 
ATOM      3  C   LIG d   1      -8.862  75.059 116.581  0.00  0.00     0.038 C 
ATOM      4  C   LIG d   1      -8.206  73.859 116.895  0.00  0.00     0.028 C 
ATOM      5  C   LIG d   1      -6.925  73.642 116.097  0.00  0.00    -0.047 C 
ATOM      6  C   LIG d   1      -6.040  74.903 116.216  0.00  0.00     0.091 C 
ENDROOT
BRANCH   1   7
ATOM      7  O   LIG d   1      -6.149  77.350 116.299  0.00  0.00    -0.368 OA
BRANCH   7   8
ATOM      8  C   LIG d   1      -6.718  77.905 117.510  0.00  0.00     0.119 C 
BRANCH   8   9
ATOM      9  C   LIG d   1      -6.652  79.440 117.391  0.00  0.00     0.028 C 
ATOM     10  C   LIG d   1      -7.996  80.112 117.717  0.00  0.00     0.006 C 
ENDBRANCH   8   9
BRANCH   8  11
ATOM     11  C   LIG d   1      -5.868  77.556 118.735  0.00  0.00     0.028 C 
ATOM     12  C   LIG d   1      -6.654  76.783 119.805  0.00  0.00     0.006 C 
ENDBRANCH   8  11
ENDBRANCH   7   8
ENDBRANCH   1   7
BRANCH   6  13
ATOM     13  N   LIG d   1      -4.804  74.809 115.396  0.00  0.00    -0.311 N 
ATOM     14  C   LIG d   1      -3.578  74.784 115.917  0.00  0.00     0.210 C 
ATOM     15  C   LIG d   1      -2.442  74.703 114.892  0.00  0.00     0.109 C 
ATOM     16  O   LIG d   1      -3.326  74.788 117.131  0.00  0.00    -0.276 OA
ATOM     17  H   LIG d   1      -4.918  74.769 114.402  0.00  0.00     0.149 HD
ENDBRANCH   6  13
BRANCH   5  18
ATOM     18  N   LIG d   1      -6.274  72.427 116.621  0.00  0.00     0.381 N 
ATOM     19  H   LIG d   1      -5.762  71.974 115.889  0.00  0.00    -0.090 HD
ATOM     20  H   LIG d   1      -6.982  71.794 116.948  0.00  0.00    -0.090 HD
ATOM     21  H   LIG d   1      -5.659  72.664 117.368  0.00  0.00    -0.090 HD
ENDBRANCH   5  18
BRANCH   3  22
ATOM     22  C   LIG d   1     -10.242  75.107 116.706  0.00  0.00     0.382 C 
ATOM     23  O   LIG d   1     -10.794  76.133 117.169  0.00  0.00    -0.241 OA
ATOM     24  O   LIG d   1     -10.938  74.120 116.401  0.00  0.00    -0.241 OA
ENDBRANCH   3  22
TORSDOF 7
ENDMDL
MODEL 6
REMARK VINA RESULT:      -5.4     14.928     17.470
REMARK  7 active torsions:
REMARK  status: ('A' for Active; 'I' for Inactive)
REMARK    1  A    between atoms: C_2  and  C_3 
REMARK    2  A    between atoms: C_3  and  O_6 
REMARK    3  A    between atoms: C_3  and  C_4 
REMARK    4  A    between atoms: C_7  and  O_6 
REMARK    5  A    between atoms: C_9  and  C_10 
REMARK    6  A    between atoms: N_15  and  C_14 
REMARK    7  A    between atoms: N_20  and  C_19 
REMARK       I    between atoms: C_22  and  N_20 
ROOT
ATOM      1  C   LIG d   1      -5.705  91.850 118.835  0.00  0.00     0.161 C 
ATOM      2  C   LIG d   1      -5.820  90.809 117.899  0.00  0.00     0.016 C 
ATOM      3  C   LIG d   1      -6.693  90.853 116.788  0.00  0.00     0.038 C 
ATOM      4  C   LIG d   1      -7.406  92.014 116.451  0.00  0.00     0.028 C 
ATOM      5  C   LIG d   1      -7.705  92.910 117.649  0.00  0.00    -0.047 C 
ATOM      6  C   LIG d   1      -6.392  93.169 118.422  0.00  0.00     0.091 C 
ENDROOT
BRANCH   1   7
ATOM      7  O   LIG d   1      -4.316  92.083 119.139  0.00  0.00    -0.368 OA
BRANCH   7   8
ATOM      8  C   LIG d   1      -3.374  91.130 118.588  0.00  0.00     0.119 C 
BRANCH   8   9
ATOM      9  C   LIG d   1      -2.728  90.382 119.770  0.00  0.00     0.028 C 
ATOM     10  C   LIG d   1      -2.364  88.930 119.417  0.00  0.00     0.006 C 
ENDBRANCH   8   9
BRANCH   8  11
ATOM     11  C   LIG d   1      -2.218  91.838 117.875  0.00  0.00     0.028 C 
ATOM     12  C   LIG d   1      -2.427  93.356 117.764  0.00  0.00     0.006 C 
ENDBRANCH   8  11
ENDBRANCH   7   8
ENDBRANCH   1   7
BRANCH   6  13
ATOM     13  N   LIG d   1      -6.610  93.968 119.656  0.00  0.00    -0.311 N 
ATOM     14  C   LIG d   1      -6.555  95.299 119.687  0.00  0.00     0.210 C 
ATOM     15  C   LIG d   1      -6.790  95.924 121.066  0.00  0.00     0.109 C 
ATOM     16  O   LIG d   1      -6.366  96.022 118.698  0.00  0.00    -0.276 OA
ATOM     17  H   LIG d   1      -6.800  93.463 120.499  0.00  0.00     0.149 HD
ENDBRANCH   6  13
BRANCH   5  18
ATOM     18  N   LIG d   1      -8.328  94.145 117.136  0.00  0.00     0.381 N 
ATOM     19  H   LIG d   1      -7.858  94.441 116.304  0.00  0.00    -0.090 HD
ATOM     20  H   LIG d   1      -8.232  94.868 117.827  0.00  0.00    -0.090 HD
ATOM     21  H   LIG d   1      -9.292  93.985 116.943  0.00  0.00    -0.090 HD
ENDBRANCH   5  18
BRANCH   3  22
ATOM     22  C   LIG d   1      -6.890  89.714 116.023  0.00  0.00     0.382 C 
ATOM     23  O   LIG d   1      -7.979  89.094 116.092  0.00  0.00    -0.241 OA
ATOM     24  O   LIG d   1      -5.978  89.273 115.299  0.00  0.00    -0.241 OA
ENDBRANCH   3  22
TORSDOF 7
ENDMDL
MODEL 7
REMARK VINA RESULT:      -5.4      2.334      5.796
REMARK  7 active torsions:
REMARK  status: ('A' for Active; 'I' for Inactive)
REMARK    1  A    between atoms: C_2  and  C_3 
REMARK    2  A    between atoms: C_3  and  O_6 
REMARK    3  A    between atoms: C_3  and  C_4 
REMARK    4  A    between atoms: C_7  and  O_6 
REMARK    5  A    between atoms: C_9  and  C_10 
REMARK    6  A    between atoms: N_15  and  C_14 
REMARK    7  A    between atoms: N_20  and  C_19 
REMARK       I    between atoms: C_22  and  N_20 
ROOT
ATOM      1  C   LIG d   1      -5.710  76.188 116.793  0.00  0.00     0.161 C 
ATOM      2  C   LIG d   1      -5.832  77.562 117.061  0.00  0.00     0.016 C 
ATOM      3  C   LIG d   1      -7.074  78.214 117.234  0.00  0.00     0.038 C 
ATOM      4  C   LIG d   1      -8.281  77.503 117.302  0.00  0.00     0.028 C 
ATOM      5  C   LIG d   1      -8.252  76.186 116.535  0.00  0.00    -0.047 C 
ATOM      6  C   LIG d   1      -7.010  75.377 116.974  0.00  0.00     0.091 C 
ENDROOT
BRANCH   1   7
ATOM      7  O   LIG d   1      -4.653  75.626 117.596  0.00  0.00    -0.368 OA
BRANCH   7   8
ATOM      8  C   LIG d   1      -3.326  75.657 117.014  0.00  0.00     0.119 C 
BRANCH   8   9
ATOM      9  C   LIG d   1      -3.216  74.460 116.050  0.00  0.00     0.028 C 
ATOM     10  C   LIG d   1      -2.857  74.892 114.618  0.00  0.00     0.006 C 
ENDBRANCH   8   9
BRANCH   8  11
ATOM     11  C   LIG d   1      -2.247  75.423 118.076  0.00  0.00     0.028 C 
ATOM     12  C   LIG d   1      -1.638  74.014 118.006  0.00  0.00     0.006 C 
ENDBRANCH   8  11
ENDBRANCH   7   8
ENDBRANCH   1   7
BRANCH   6  13
ATOM     13  N   LIG d   1      -6.859  74.111 116.211  0.00  0.00    -0.311 N 
ATOM     14  C   LIG d   1      -7.332  72.939 116.634  0.00  0.00     0.210 C 
ATOM     15  C   LIG d   1      -7.050  71.755 115.704  0.00  0.00     0.109 C 
ATOM     16  O   LIG d   1      -7.986  72.775 117.675  0.00  0.00    -0.276 OA
ATOM     17  H   LIG d   1      -6.369  74.159 115.340  0.00  0.00     0.149 HD
ENDBRANCH   6  13
BRANCH   5  18
ATOM     18  N   LIG d   1      -9.522  75.485 116.804  0.00  0.00     0.381 N 
ATOM     19  H   LIG d   1     -10.270  76.148 116.858  0.00  0.00    -0.090 HD
ATOM     20  H   LIG d   1      -9.453  75.014 117.689  0.00  0.00    -0.090 HD
ATOM     21  H   LIG d   1      -9.707  74.825 116.081  0.00  0.00    -0.090 HD
ENDBRANCH   5  18
BRANCH   3  22
ATOM     22  C   LIG d   1      -7.120  79.598 117.302  0.00  0.00     0.382 C 
ATOM     23  O   LIG d   1      -8.225  80.192 117.262  0.00  0.00    -0.241 OA
ATOM     24  O   LIG d   1      -6.068  80.264 117.359  0.00  0.00    -0.241 OA
ENDBRANCH   3  22
TORSDOF 7
ENDMDL
MODEL 8
REMARK VINA RESULT:      -5.3      2.466      5.340
REMARK  7 active torsions:
REMARK  status: ('A' for Active; 'I' for Inactive)
REMARK    1  A    between atoms: C_2  and  C_3 
REMARK    2  A    between atoms: C_3  and  O_6 
REMARK    3  A    between atoms: C_3  and  C_4 
REMARK    4  A    between atoms: C_7  and  O_6 
REMARK    5  A    between atoms: C_9  and  C_10 
REMARK    6  A    between atoms: N_15  and  C_14 
REMARK    7  A    between atoms: N_20  and  C_19 
REMARK       I    between atoms: C_22  and  N_20 
ROOT
ATOM      1  C   LIG d   1      -6.882  77.230 117.992  0.00  0.00     0.161 C 
ATOM      2  C   LIG d   1      -8.104  77.911 117.874  0.00  0.00     0.016 C 
ATOM      3  C   LIG d   1      -8.204  79.317 117.757  0.00  0.00     0.038 C 
ATOM      4  C   LIG d   1      -7.071  80.129 117.598  0.00  0.00     0.028 C 
ATOM      5  C   LIG d   1      -5.810  79.538 118.217  0.00  0.00    -0.047 C 
ATOM      6  C   LIG d   1      -5.632  78.089 117.708  0.00  0.00     0.091 C 
ENDROOT
BRANCH   1   7
ATOM      7  O   LIG d   1      -6.890  76.062 117.146  0.00  0.00    -0.368 OA
BRANCH   7   8
ATOM      8  C   LIG d   1      -8.161  75.722 116.541  0.00  0.00     0.119 C 
BRANCH   8   9
ATOM      9  C   LIG d   1      -8.615  74.378 117.143  0.00  0.00     0.028 C 
ATOM     10  C   LIG d   1     -10.011  73.957 116.654  0.00  0.00     0.006 C 
ENDBRANCH   8   9
BRANCH   8  11
ATOM     11  C   LIG d   1      -8.013  75.464 115.039  0.00  0.00     0.028 C 
ATOM     12  C   LIG d   1      -6.589  75.039 114.645  0.00  0.00     0.006 C 
ENDBRANCH   8  11
ENDBRANCH   7   8
ENDBRANCH   1   7
BRANCH   6  13
ATOM     13  N   LIG d   1      -4.467  77.408 118.330  0.00  0.00    -0.311 N 
ATOM     14  C   LIG d   1      -3.256  77.375 117.777  0.00  0.00     0.210 C 
ATOM     15  C   LIG d   1      -2.201  76.603 118.576  0.00  0.00     0.109 C 
ATOM     16  O   LIG d   1      -2.947  77.940 116.717  0.00  0.00    -0.276 OA
ATOM     17  H   LIG d   1      -4.621  76.951 119.207  0.00  0.00     0.149 HD
ENDBRANCH   6  13
BRANCH   5  18
ATOM     18  N   LIG d   1      -4.682  80.419 117.858  0.00  0.00     0.381 N 
ATOM     19  H   LIG d   1      -4.140  80.625 118.673  0.00  0.00    -0.090 HD
ATOM     20  H   LIG d   1      -5.047  81.282 117.496  0.00  0.00    -0.090 HD
ATOM     21  H   LIG d   1      -4.110  79.978 117.172  0.00  0.00    -0.090 HD
ENDBRANCH   5  18
BRANCH   3  22
ATOM     22  C   LIG d   1      -9.446  79.927 117.840  0.00  0.00     0.382 C 
ATOM     23  O   LIG d   1     -10.440  79.274 118.240  0.00  0.00    -0.241 OA
ATOM     24  O   LIG d   1      -9.594  81.110 117.478  0.00  0.00    -0.241 OA
ENDBRANCH   3  22
TORSDOF 7
ENDMDL
MODEL 9
REMARK VINA RESULT:      -5.3     14.952     17.201
REMARK  7 active torsions:
REMARK  status: ('A' for Active; 'I' for Inactive)
REMARK    1  A    between atoms: C_2  and  C_3 
REMARK    2  A    between atoms: C_3  and  O_6 
REMARK    3  A    between atoms: C_3  and  C_4 
REMARK    4  A    between atoms: C_7  and  O_6 
REMARK    5  A    between atoms: C_9  and  C_10 
REMARK    6  A    between atoms: N_15  and  C_14 
REMARK    7  A    between atoms: N_20  and  C_19 
REMARK       I    between atoms: C_22  and  N_20 
ROOT
ATOM      1  C   LIG d   1      -5.450  91.911 117.824  0.00  0.00     0.161 C 
ATOM      2  C   LIG d   1      -6.420  92.097 116.826  0.00  0.00     0.016 C 
ATOM      3  C   LIG d   1      -6.460  91.345 115.629  0.00  0.00     0.038 C 
ATOM      4  C   LIG d   1      -5.616  90.245 115.417  0.00  0.00     0.028 C 
ATOM      5  C   LIG d   1      -4.295  90.340 116.172  0.00  0.00    -0.047 C 
ATOM      6  C   LIG d   1      -4.588  90.641 117.660  0.00  0.00     0.091 C 
ENDROOT
BRANCH   1   7
ATOM      7  O   LIG d   1      -6.075  91.927 119.123  0.00  0.00    -0.368 OA
BRANCH   7   8
ATOM      8  C   LIG d   1      -5.826  93.100 119.936  0.00  0.00     0.119 C 
BRANCH   8   9
ATOM      9  C   LIG d   1      -7.101  93.964 119.906  0.00  0.00     0.028 C 
ATOM     10  C   LIG d   1      -6.973  95.168 118.957  0.00  0.00     0.006 C 
ENDBRANCH   8   9
BRANCH   8  11
ATOM     11  C   LIG d   1      -4.728  93.977 119.326  0.00  0.00     0.028 C 
ATOM     12  C   LIG d   1      -3.467  94.048 120.202  0.00  0.00     0.006 C 
ENDBRANCH   8  11
ENDBRANCH   7   8
ENDBRANCH   1   7
BRANCH   6  13
ATOM     13  N   LIG d   1      -3.347  90.834 118.455  0.00  0.00    -0.311 N 
ATOM     14  C   LIG d   1      -2.714  89.841 119.077  0.00  0.00     0.210 C 
ATOM     15  C   LIG d   1      -1.464  90.261 119.858  0.00  0.00     0.109 C 
ATOM     16  O   LIG d   1      -3.049  88.648 119.030  0.00  0.00    -0.276 OA
ATOM     17  H   LIG d   1      -2.988  91.766 118.520  0.00  0.00     0.149 HD
ENDBRANCH   6  13
BRANCH   5  18
ATOM     18  N   LIG d   1      -3.573  89.070 115.971  0.00  0.00     0.381 N 
ATOM     19  H   LIG d   1      -2.588  89.224 116.049  0.00  0.00    -0.090 HD
ATOM     20  H   LIG d   1      -3.767  88.729 115.046  0.00  0.00    -0.090 HD
ATOM     21  H   LIG d   1      -3.866  88.400 116.648  0.00  0.00    -0.090 HD
ENDBRANCH   5  18
BRANCH   3  22
ATOM     22  C   LIG d   1      -7.326  91.716 114.612  0.00  0.00     0.382 C 
ATOM     23  O   LIG d   1      -7.273  91.137 113.501  0.00  0.00    -0.241 OA
ATOM     24  O   LIG d   1      -8.129  92.654 114.778  0.00  0.00    -0.241 OA
ENDBRANCH   3  22
TORSDOF 7
ENDMDL
