MODEL 1
REMARK VINA RESULT:      -5.9      0.000      0.000
REMARK  7 active torsions:
REMARK  status: ('A' for Active; 'I' for Inactive)
REMARK    1  A    between atoms: C_2  and  C_3 
REMARK    2  A    between atoms: C_3  and  O_6 
REMARK    3  A    between atoms: C_3  and  C_4 
REMARK    4  A    between atoms: C_7  and  O_6 
REMARK    5  A    between atoms: C_9  and  C_10 
REMARK    6  A    between atoms: N_15  and  C_14 
REMARK    7  A    between atoms: N_20  and  C_19 
REMARK       I    between atoms: C_22  and  N_20 
ROOT
ATOM      1  C   LIG d   1      -8.141  75.952 116.081  0.00  0.00     0.161 C 
ATOM      2  C   LIG d   1      -7.126  75.499 115.222  0.00  0.00     0.016 C 
ATOM      3  C   LIG d   1      -5.786  75.944 115.297  0.00  0.00     0.038 C 
ATOM      4  C   LIG d   1      -5.335  76.766 116.341  0.00  0.00     0.028 C 
ATOM      5  C   LIG d   1      -6.429  77.647 116.933  0.00  0.00    -0.047 C 
ATOM      6  C   LIG d   1      -7.644  76.764 117.296  0.00  0.00     0.091 C 
ENDROOT
BRANCH   1   7
ATOM      7  O   LIG d   1      -8.945  74.838 116.518  0.00  0.00    -0.368 OA
BRANCH   7   8
ATOM      8  C   LIG d   1      -8.273  73.848 117.334  0.00  0.00     0.119 C 
BRANCH   8   9
ATOM      9  C   LIG d   1      -8.265  72.525 116.544  0.00  0.00     0.028 C 
ATOM     10  C   LIG d   1      -6.841  72.043 116.221  0.00  0.00     0.006 C 
ENDBRANCH   8   9
BRANCH   8  11
ATOM     11  C   LIG d   1      -9.062  73.552 118.613  0.00  0.00     0.028 C 
ATOM     12  C   LIG d   1      -9.374  72.057 118.788  0.00  0.00     0.006 C 
ENDBRANCH   8  11
ENDBRANCH   7   8
ENDBRANCH   1   7
BRANCH   6  13
ATOM     13  N   LIG d   1      -8.792  77.559 117.805  0.00  0.00    -0.311 N 
ATOM     14  C   LIG d   1      -9.254  77.466 119.051  0.00  0.00     0.210 C 
ATOM     15  C   LIG d   1     -10.458  78.360 119.363  0.00  0.00     0.109 C 
ATOM     16  O   LIG d   1      -8.761  76.751 119.936  0.00  0.00    -0.276 OA
ATOM     17  H   LIG d   1      -9.232  78.188 117.162  0.00  0.00     0.149 HD
ENDBRANCH   6  13
BRANCH   5  18
ATOM     18  N   LIG d   1      -5.855  78.347 118.098  0.00  0.00     0.381 N 
ATOM     19  H   LIG d   1      -5.369  77.695 118.680  0.00  0.00    -0.090 HD
ATOM     20  H   LIG d   1      -6.602  78.753 118.634  0.00  0.00    -0.090 HD
ATOM     21  H   LIG d   1      -5.229  79.060 117.793  0.00  0.00    -0.090 HD
ENDBRANCH   5  18
BRANCH   3  22
ATOM     22  C   LIG d   1      -4.890  75.599 114.296  0.00  0.00     0.382 C 
ATOM     23  O   LIG d   1      -4.461  74.423 114.218  0.00  0.00    -0.241 OA
ATOM     24  O   LIG d   1      -4.472  76.459 113.498  0.00  0.00    -0.241 OA
ENDBRANCH   3  22
TORSDOF 7
ENDMDL
MODEL 2
REMARK VINA RESULT:      -5.6      1.906      5.003
REMARK  7 active torsions:
REMARK  status: ('A' for Active; 'I' for Inactive)
REMARK    1  A    between atoms: C_2  and  C_3 
REMARK    2  A    between atoms: C_3  and  O_6 
REMARK    3  A    between atoms: C_3  and  C_4 
REMARK    4  A    between atoms: C_7  and  O_6 
REMARK    5  A    between atoms: C_9  and  C_10 
REMARK    6  A    between atoms: N_15  and  C_14 
REMARK    7  A    between atoms: N_20  and  C_19 
REMARK       I    between atoms: C_22  and  N_20 
ROOT
ATOM      1  C   LIG d   1      -7.639  74.518 118.860  0.00  0.00     0.161 C 
ATOM      2  C   LIG d   1      -8.903  75.036 119.188  0.00  0.00     0.016 C 
ATOM      3  C   LIG d   1      -9.349  76.314 118.782  0.00  0.00     0.038 C 
ATOM      4  C   LIG d   1      -8.615  77.106 117.886  0.00  0.00     0.028 C 
ATOM      5  C   LIG d   1      -7.114  76.840 117.933  0.00  0.00    -0.047 C 
ATOM      6  C   LIG d   1      -6.869  75.321 117.791  0.00  0.00     0.091 C 
ENDROOT
BRANCH   1   7
ATOM      7  O   LIG d   1      -7.766  73.140 118.457  0.00  0.00    -0.368 OA
BRANCH   7   8
ATOM      8  C   LIG d   1      -8.507  72.899 117.235  0.00  0.00     0.119 C 
BRANCH   8   9
ATOM      9  C   LIG d   1      -9.313  71.600 117.432  0.00  0.00     0.028 C 
ATOM     10  C   LIG d   1      -9.278  71.102 118.887  0.00  0.00     0.006 C 
ENDBRANCH   8   9
BRANCH   8  11
ATOM     11  C   LIG d   1      -7.567  72.618 116.059  0.00  0.00     0.028 C 
ATOM     12  C   LIG d   1      -6.674  71.389 116.290  0.00  0.00     0.006 C 
ENDBRANCH   8  11
ENDBRANCH   7   8
ENDBRANCH   1   7
BRANCH   6  13
ATOM     13  N   LIG d   1      -5.431  74.965 117.911  0.00  0.00    -0.311 N 
ATOM     14  C   LIG d   1      -4.621  74.822 116.863  0.00  0.00     0.210 C 
ATOM     15  C   LIG d   1      -3.180  74.434 117.208  0.00  0.00     0.109 C 
ATOM     16  O   LIG d   1      -4.951  75.012 115.683  0.00  0.00    -0.276 OA
ATOM     17  H   LIG d   1      -5.071  74.824 118.834  0.00  0.00     0.149 HD
ENDBRANCH   6  13
BRANCH   5  18
ATOM     18  N   LIG d   1      -6.488  77.630 116.856  0.00  0.00     0.381 N 
ATOM     19  H   LIG d   1      -5.592  77.247 116.631  0.00  0.00    -0.090 HD
ATOM     20  H   LIG d   1      -6.356  78.573 117.178  0.00  0.00    -0.090 HD
ATOM     21  H   LIG d   1      -7.071  77.627 116.047  0.00  0.00    -0.090 HD
ENDBRANCH   5  18
BRANCH   3  22
ATOM     22  C   LIG d   1     -10.525  76.830 119.305  0.00  0.00     0.382 C 
ATOM     23  O   LIG d   1     -10.857  76.561 120.485  0.00  0.00    -0.241 OA
ATOM     24  O   LIG d   1     -11.280  77.524 118.598  0.00  0.00    -0.241 OA
ENDBRANCH   3  22
TORSDOF 7
ENDMDL
MODEL 3
REMARK VINA RESULT:      -5.6      2.166      4.276
REMARK  7 active torsions:
REMARK  status: ('A' for Active; 'I' for Inactive)
REMARK    1  A    between atoms: C_2  and  C_3 
REMARK    2  A    between atoms: C_3  and  O_6 
REMARK    3  A    between atoms: C_3  and  C_4 
REMARK    4  A    between atoms: C_7  and  O_6 
REMARK    5  A    between atoms: C_9  and  C_10 
REMARK    6  A    between atoms: N_15  and  C_14 
REMARK    7  A    between atoms: N_20  and  C_19 
REMARK       I    between atoms: C_22  and  N_20 
ROOT
ATOM      1  C   LIG d   1      -6.813  75.873 116.733  0.00  0.00     0.161 C 
ATOM      2  C   LIG d   1      -5.830  76.389 115.872  0.00  0.00     0.016 C 
ATOM      3  C   LIG d   1      -5.108  75.595 114.952  0.00  0.00     0.038 C 
ATOM      4  C   LIG d   1      -5.429  74.249 114.722  0.00  0.00     0.028 C 
ATOM      5  C   LIG d   1      -6.071  73.566 115.925  0.00  0.00    -0.047 C 
ATOM      6  C   LIG d   1      -7.255  74.428 116.419  0.00  0.00     0.091 C 
ENDROOT
BRANCH   1   7
ATOM      7  O   LIG d   1      -7.955  76.753 116.753  0.00  0.00    -0.368 OA
BRANCH   7   8
ATOM      8  C   LIG d   1      -8.330  77.282 118.049  0.00  0.00     0.119 C 
BRANCH   8   9
ATOM      9  C   LIG d   1      -9.765  76.806 118.346  0.00  0.00     0.028 C 
ATOM     10  C   LIG d   1      -9.922  76.277 119.782  0.00  0.00     0.006 C 
ENDBRANCH   8   9
BRANCH   8  11
ATOM     11  C   LIG d   1      -8.406  78.811 118.025  0.00  0.00     0.028 C 
ATOM     12  C   LIG d   1      -7.053  79.471 117.714  0.00  0.00     0.006 C 
ENDBRANCH   8  11
ENDBRANCH   7   8
ENDBRANCH   1   7
BRANCH   6  13
ATOM     13  N   LIG d   1      -7.887  73.875 117.645  0.00  0.00    -0.311 N 
ATOM     14  C   LIG d   1      -8.928  73.045 117.622  0.00  0.00     0.210 C 
ATOM     15  C   LIG d   1      -9.438  72.609 118.999  0.00  0.00     0.109 C 
ATOM     16  O   LIG d   1      -9.458  72.604 116.591  0.00  0.00    -0.276 OA
ATOM     17  H   LIG d   1      -7.500  74.156 118.525  0.00  0.00     0.149 HD
ENDBRANCH   6  13
BRANCH   5  18
ATOM     18  N   LIG d   1      -6.478  72.212 115.504  0.00  0.00     0.381 N 
ATOM     19  H   LIG d   1      -5.757  71.800 114.946  0.00  0.00    -0.090 HD
ATOM     20  H   LIG d   1      -7.309  72.282 114.943  0.00  0.00    -0.090 HD
ATOM     21  H   LIG d   1      -6.655  71.645 116.303  0.00  0.00    -0.090 HD
ENDBRANCH   5  18
BRANCH   3  22
ATOM     22  C   LIG d   1      -4.025  76.139 114.278  0.00  0.00     0.382 C 
ATOM     23  O   LIG d   1      -4.205  76.778 113.213  0.00  0.00    -0.241 OA
ATOM     24  O   LIG d   1      -2.866  75.960 114.697  0.00  0.00    -0.241 OA
ENDBRANCH   3  22
TORSDOF 7
ENDMDL
MODEL 4
REMARK VINA RESULT:      -5.5     14.793     16.927
REMARK  7 active torsions:
REMARK  status: ('A' for Active; 'I' for Inactive)
REMARK    1  A    between atoms: C_2  and  C_3 
REMARK    2  A    between atoms: C_3  and  O_6 
REMARK    3  A    between atoms: C_3  and  C_4 
REMARK    4  A    between atoms: C_7  and  O_6 
REMARK    5  A    between atoms: C_9  and  C_10 
REMARK    6  A    between atoms: N_15  and  C_14 
REMARK    7  A    between atoms: N_20  and  C_19 
REMARK       I    between atoms: C_22  and  N_20 
ROOT
ATOM      1  C   LIG d   1      -4.036  91.405 118.065  0.00  0.00     0.161 C 
ATOM      2  C   LIG d   1      -4.694  90.663 117.070  0.00  0.00     0.016 C 
ATOM      3  C   LIG d   1      -5.877  91.098 116.429  0.00  0.00     0.038 C 
ATOM      4  C   LIG d   1      -6.402  92.383 116.633  0.00  0.00     0.028 C 
ATOM      5  C   LIG d   1      -6.057  92.968 117.999  0.00  0.00    -0.047 C 
ATOM      6  C   LIG d   1      -4.532  92.858 118.221  0.00  0.00     0.091 C 
ENDROOT
BRANCH   1   7
ATOM      7  O   LIG d   1      -2.614  91.383 117.831  0.00  0.00    -0.368 OA
BRANCH   7   8
ATOM      8  C   LIG d   1      -2.008  90.073 117.714  0.00  0.00     0.119 C 
BRANCH   8   9
ATOM      9  C   LIG d   1      -1.951  89.462 119.127  0.00  0.00     0.028 C 
ATOM     10  C   LIG d   1      -2.458  88.010 119.160  0.00  0.00     0.006 C 
ENDBRANCH   8   9
BRANCH   8  11
ATOM     11  C   LIG d   1      -0.550  90.172 117.256  0.00  0.00     0.028 C 
ATOM     12  C   LIG d   1       0.052  91.568 117.483  0.00  0.00     0.006 C 
ENDBRANCH   8  11
ENDBRANCH   7   8
ENDBRANCH   1   7
BRANCH   6  13
ATOM     13  N   LIG d   1      -4.120  93.331 119.569  0.00  0.00    -0.311 N 
ATOM     14  C   LIG d   1      -3.212  94.285 119.765  0.00  0.00     0.210 C 
ATOM     15  C   LIG d   1      -2.920  94.608 121.234  0.00  0.00     0.109 C 
ATOM     16  O   LIG d   1      -2.644  94.918 118.862  0.00  0.00    -0.276 OA
ATOM     17  H   LIG d   1      -4.554  92.894 120.358  0.00  0.00     0.149 HD
ENDBRANCH   6  13
BRANCH   5  18
ATOM     18  N   LIG d   1      -6.548  94.359 118.025  0.00  0.00     0.381 N 
ATOM     19  H   LIG d   1      -6.903  94.576 118.934  0.00  0.00    -0.090 HD
ATOM     20  H   LIG d   1      -7.297  94.451 117.362  0.00  0.00    -0.090 HD
ATOM     21  H   LIG d   1      -5.809  94.985 117.791  0.00  0.00    -0.090 HD
ENDBRANCH   5  18
BRANCH   3  22
ATOM     22  C   LIG d   1      -6.570  90.228 115.601  0.00  0.00     0.382 C 
ATOM     23  O   LIG d   1      -7.636  89.699 116.000  0.00  0.00    -0.241 OA
ATOM     24  O   LIG d   1      -6.120  89.930 114.479  0.00  0.00    -0.241 OA
ENDBRANCH   3  22
TORSDOF 7
ENDMDL
MODEL 5
REMARK VINA RESULT:      -5.4      2.592      4.677
REMARK  7 active torsions:
REMARK  status: ('A' for Active; 'I' for Inactive)
REMARK    1  A    between atoms: C_2  and  C_3 
REMARK    2  A    between atoms: C_3  and  O_6 
REMARK    3  A    between atoms: C_3  and  C_4 
REMARK    4  A    between atoms: C_7  and  O_6 
REMARK    5  A    between atoms: C_9  and  C_10 
REMARK    6  A    between atoms: N_15  and  C_14 
REMARK    7  A    between atoms: N_20  and  C_19 
REMARK       I    between atoms: C_22  and  N_20 
ROOT
ATOM      1  C   LIG d   1      -6.193  74.655 118.018  0.00  0.00     0.161 C 
ATOM      2  C   LIG d   1      -6.327  73.309 117.639  0.00  0.00     0.016 C 
ATOM      3  C   LIG d   1      -7.484  72.787 117.017  0.00  0.00     0.038 C 
ATOM      4  C   LIG d   1      -8.534  73.614 116.592  0.00  0.00     0.028 C 
ATOM      5  C   LIG d   1      -8.662  74.898 117.405  0.00  0.00    -0.047 C 
ATOM      6  C   LIG d   1      -7.284  75.595 117.462  0.00  0.00     0.091 C 
ENDROOT
BRANCH   1   7
ATOM      7  O   LIG d   1      -4.884  75.137 117.656  0.00  0.00    -0.368 OA
BRANCH   7   8
ATOM      8  C   LIG d   1      -4.220  74.431 116.579  0.00  0.00     0.119 C 
BRANCH   8   9
ATOM      9  C   LIG d   1      -2.738  74.276 116.971  0.00  0.00     0.028 C 
ATOM     10  C   LIG d   1      -1.792  74.959 115.970  0.00  0.00     0.006 C 
ENDBRANCH   8   9
BRANCH   8  11
ATOM     11  C   LIG d   1      -4.214  75.259 115.290  0.00  0.00     0.028 C 
ATOM     12  C   LIG d   1      -5.263  74.785 114.272  0.00  0.00     0.006 C 
ENDBRANCH   8  11
ENDBRANCH   7   8
ENDBRANCH   1   7
BRANCH   6  13
ATOM     13  N   LIG d   1      -7.300  76.816 118.310  0.00  0.00    -0.311 N 
ATOM     14  C   LIG d   1      -6.817  77.991 117.912  0.00  0.00     0.210 C 
ATOM     15  C   LIG d   1      -6.915  79.115 118.948  0.00  0.00     0.109 C 
ATOM     16  O   LIG d   1      -6.346  78.218 116.787  0.00  0.00    -0.276 OA
ATOM     17  H   LIG d   1      -7.693  76.729 119.227  0.00  0.00     0.149 HD
ENDBRANCH   6  13
BRANCH   5  18
ATOM     18  N   LIG d   1      -9.703  75.727 116.770  0.00  0.00     0.381 N 
ATOM     19  H   LIG d   1      -9.276  76.452 116.229  0.00  0.00    -0.090 HD
ATOM     20  H   LIG d   1     -10.261  76.155 117.488  0.00  0.00    -0.090 HD
ATOM     21  H   LIG d   1     -10.279  75.162 116.185  0.00  0.00    -0.090 HD
ENDBRANCH   5  18
BRANCH   3  22
ATOM     22  C   LIG d   1      -7.616  71.417 116.850  0.00  0.00     0.382 C 
ATOM     23  O   LIG d   1      -8.553  70.804 117.416  0.00  0.00    -0.241 OA
ATOM     24  O   LIG d   1      -6.784  70.780 116.177  0.00  0.00    -0.241 OA
ENDBRANCH   3  22
TORSDOF 7
ENDMDL
MODEL 6
REMARK VINA RESULT:      -5.4      1.821      4.600
REMARK  7 active torsions:
REMARK  status: ('A' for Active; 'I' for Inactive)
REMARK    1  A    between atoms: C_2  and  C_3 
REMARK    2  A    between atoms: C_3  and  O_6 
REMARK    3  A    between atoms: C_3  and  C_4 
REMARK    4  A    between atoms: C_7  and  O_6 
REMARK    5  A    between atoms: C_9  and  C_10 
REMARK    6  A    between atoms: N_15  and  C_14 
REMARK    7  A    between atoms: N_20  and  C_19 
REMARK       I    between atoms: C_22  and  N_20 
ROOT
ATOM      1  C   LIG d   1      -7.401  76.088 117.629  0.00  0.00     0.161 C 
ATOM      2  C   LIG d   1      -8.512  76.916 117.862  0.00  0.00     0.016 C 
ATOM      3  C   LIG d   1      -8.427  78.324 117.954  0.00  0.00     0.038 C 
ATOM      4  C   LIG d   1      -7.241  79.016 117.667  0.00  0.00     0.028 C 
ATOM      5  C   LIG d   1      -5.983  78.194 117.923  0.00  0.00    -0.047 C 
ATOM      6  C   LIG d   1      -6.118  76.833 117.202  0.00  0.00     0.091 C 
ENDROOT
BRANCH   1   7
ATOM      7  O   LIG d   1      -7.739  75.078 116.658  0.00  0.00    -0.368 OA
BRANCH   7   8
ATOM      8  C   LIG d   1      -7.636  73.704 117.106  0.00  0.00     0.119 C 
BRANCH   8   9
ATOM      9  C   LIG d   1      -6.922  72.907 115.997  0.00  0.00     0.028 C 
ATOM     10  C   LIG d   1      -6.832  71.406 116.317  0.00  0.00     0.006 C 
ENDBRANCH   8   9
BRANCH   8  11
ATOM     11  C   LIG d   1      -9.017  73.057 117.245  0.00  0.00     0.028 C 
ATOM     12  C   LIG d   1      -9.365  72.701 118.699  0.00  0.00     0.006 C 
ENDBRANCH   8  11
ENDBRANCH   7   8
ENDBRANCH   1   7
BRANCH   6  13
ATOM     13  N   LIG d   1      -4.966  75.933 117.470  0.00  0.00    -0.311 N 
ATOM     14  C   LIG d   1      -4.203  75.413 116.510  0.00  0.00     0.210 C 
ATOM     15  C   LIG d   1      -3.080  74.495 117.002  0.00  0.00     0.109 C 
ATOM     16  O   LIG d   1      -4.329  75.651 115.299  0.00  0.00    -0.276 OA
ATOM     17  H   LIG d   1      -4.772  75.712 118.427  0.00  0.00     0.149 HD
ENDBRANCH   6  13
BRANCH   5  18
ATOM     18  N   LIG d   1      -4.830  78.985 117.452  0.00  0.00     0.381 N 
ATOM     19  H   LIG d   1      -4.489  79.561 118.195  0.00  0.00    -0.090 HD
ATOM     20  H   LIG d   1      -5.130  79.582 116.702  0.00  0.00    -0.090 HD
ATOM     21  H   LIG d   1      -4.107  78.378 117.135  0.00  0.00    -0.090 HD
ENDBRANCH   5  18
BRANCH   3  22
ATOM     22  C   LIG d   1      -9.529  79.052 118.376  0.00  0.00     0.382 C 
ATOM     23  O   LIG d   1      -9.382  80.226 118.794  0.00  0.00    -0.241 OA
ATOM     24  O   LIG d   1     -10.662  78.535 118.387  0.00  0.00    -0.241 OA
ENDBRANCH   3  22
TORSDOF 7
ENDMDL
MODEL 7
REMARK VINA RESULT:      -5.2      1.534      2.188
REMARK  7 active torsions:
REMARK  status: ('A' for Active; 'I' for Inactive)
REMARK    1  A    between atoms: C_2  and  C_3 
REMARK    2  A    between atoms: C_3  and  O_6 
REMARK    3  A    between atoms: C_3  and  C_4 
REMARK    4  A    between atoms: C_7  and  O_6 
REMARK    5  A    between atoms: C_9  and  C_10 
REMARK    6  A    between atoms: N_15  and  C_14 
REMARK    7  A    between atoms: N_20  and  C_19 
REMARK       I    between atoms: C_22  and  N_20 
ROOT
ATOM      1  C   LIG d   1      -6.936  75.953 117.155  0.00  0.00     0.161 C 
ATOM      2  C   LIG d   1      -6.362  75.548 115.938  0.00  0.00     0.016 C 
ATOM      3  C   LIG d   1      -5.178  76.112 115.411  0.00  0.00     0.038 C 
ATOM      4  C   LIG d   1      -4.399  77.021 116.143  0.00  0.00     0.028 C 
ATOM      5  C   LIG d   1      -5.205  77.832 117.153  0.00  0.00    -0.047 C 
ATOM      6  C   LIG d   1      -6.041  76.864 118.021  0.00  0.00     0.091 C 
ENDROOT
BRANCH   1   7
ATOM      7  O   LIG d   1      -7.351  74.796 117.908  0.00  0.00    -0.368 OA
BRANCH   7   8
ATOM      8  C   LIG d   1      -8.747  74.753 118.292  0.00  0.00     0.119 C 
BRANCH   8   9
ATOM      9  C   LIG d   1      -9.203  73.282 118.216  0.00  0.00     0.028 C 
ATOM     10  C   LIG d   1      -9.188  72.737 116.778  0.00  0.00     0.006 C 
ENDBRANCH   8   9
BRANCH   8  11
ATOM     11  C   LIG d   1      -9.626  75.502 117.286  0.00  0.00     0.028 C 
ATOM     12  C   LIG d   1     -10.346  76.709 117.906  0.00  0.00     0.006 C 
ENDBRANCH   8  11
ENDBRANCH   7   8
ENDBRANCH   1   7
BRANCH   6  13
ATOM     13  N   LIG d   1      -6.923  77.580 118.979  0.00  0.00    -0.311 N 
ATOM     14  C   LIG d   1      -6.991  77.282 120.276  0.00  0.00     0.210 C 
ATOM     15  C   LIG d   1      -7.979  78.131 121.083  0.00  0.00     0.109 C 
ATOM     16  O   LIG d   1      -6.304  76.418 120.840  0.00  0.00    -0.276 OA
ATOM     17  H   LIG d   1      -7.492  78.317 118.612  0.00  0.00     0.149 HD
ENDBRANCH   6  13
BRANCH   5  18
ATOM     18  N   LIG d   1      -4.251  78.636 117.940  0.00  0.00     0.381 N 
ATOM     19  H   LIG d   1      -3.345  78.214 117.909  0.00  0.00    -0.090 HD
ATOM     20  H   LIG d   1      -4.556  78.658 118.897  0.00  0.00    -0.090 HD
ATOM     21  H   LIG d   1      -4.207  79.563 117.577  0.00  0.00    -0.090 HD
ENDBRANCH   5  18
BRANCH   3  22
ATOM     22  C   LIG d   1      -4.782  75.797 114.120  0.00  0.00     0.382 C 
ATOM     23  O   LIG d   1      -4.254  76.674 113.394  0.00  0.00    -0.241 OA
ATOM     24  O   LIG d   1      -4.987  74.660 113.656  0.00  0.00    -0.241 OA
ENDBRANCH   3  22
TORSDOF 7
ENDMDL
MODEL 8
REMARK VINA RESULT:      -5.1      2.276      2.835
REMARK  7 active torsions:
REMARK  status: ('A' for Active; 'I' for Inactive)
REMARK    1  A    between atoms: C_2  and  C_3 
REMARK    2  A    between atoms: C_3  and  O_6 
REMARK    3  A    between atoms: C_3  and  C_4 
REMARK    4  A    between atoms: C_7  and  O_6 
REMARK    5  A    between atoms: C_9  and  C_10 
REMARK    6  A    between atoms: N_15  and  C_14 
REMARK    7  A    between atoms: N_20  and  C_19 
REMARK       I    between atoms: C_22  and  N_20 
ROOT
ATOM      1  C   LIG d   1      -5.758  74.858 117.207  0.00  0.00     0.161 C 
ATOM      2  C   LIG d   1      -4.597  74.206 116.759  0.00  0.00     0.016 C 
ATOM      3  C   LIG d   1      -3.290  74.671 117.028  0.00  0.00     0.038 C 
ATOM      4  C   LIG d   1      -3.050  75.745 117.899  0.00  0.00     0.028 C 
ATOM      5  C   LIG d   1      -4.204  76.739 117.967  0.00  0.00    -0.047 C 
ATOM      6  C   LIG d   1      -5.514  75.968 118.251  0.00  0.00     0.091 C 
ENDROOT
BRANCH   1   7
ATOM      7  O   LIG d   1      -6.697  73.890 117.715  0.00  0.00    -0.368 OA
BRANCH   7   8
ATOM      8  C   LIG d   1      -7.772  73.513 116.819  0.00  0.00     0.119 C 
BRANCH   8   9
ATOM      9  C   LIG d   1      -9.079  74.087 117.398  0.00  0.00     0.028 C 
ATOM     10  C   LIG d   1      -9.624  75.260 116.566  0.00  0.00     0.006 C 
ENDBRANCH   8   9
BRANCH   8  11
ATOM     11  C   LIG d   1      -7.971  71.994 116.796  0.00  0.00     0.028 C 
ATOM     12  C   LIG d   1      -9.192  71.541 117.612  0.00  0.00     0.006 C 
ENDBRANCH   8  11
ENDBRANCH   7   8
ENDBRANCH   1   7
BRANCH   6  13
ATOM     13  N   LIG d   1      -6.706  76.856 118.250  0.00  0.00    -0.311 N 
ATOM     14  C   LIG d   1      -7.563  76.933 119.267  0.00  0.00     0.210 C 
ATOM     15  C   LIG d   1      -8.735  77.896 119.053  0.00  0.00     0.109 C 
ATOM     16  O   LIG d   1      -7.446  76.320 120.339  0.00  0.00    -0.276 OA
ATOM     17  H   LIG d   1      -6.860  77.412 117.432  0.00  0.00     0.149 HD
ENDBRANCH   6  13
BRANCH   5  18
ATOM     18  N   LIG d   1      -3.879  77.729 119.011  0.00  0.00     0.381 N 
ATOM     19  H   LIG d   1      -3.330  78.467 118.618  0.00  0.00    -0.090 HD
ATOM     20  H   LIG d   1      -3.336  77.279 119.727  0.00  0.00    -0.090 HD
ATOM     21  H   LIG d   1      -4.717  78.100 119.403  0.00  0.00    -0.090 HD
ENDBRANCH   5  18
BRANCH   3  22
ATOM     22  C   LIG d   1      -2.207  74.085 116.392  0.00  0.00     0.382 C 
ATOM     23  O   LIG d   1      -1.976  74.337 115.185  0.00  0.00    -0.241 OA
ATOM     24  O   LIG d   1      -1.483  73.272 116.997  0.00  0.00    -0.241 OA
ENDBRANCH   3  22
TORSDOF 7
ENDMDL
MODEL 9
REMARK VINA RESULT:      -5.0      2.843      5.097
REMARK  7 active torsions:
REMARK  status: ('A' for Active; 'I' for Inactive)
REMARK    1  A    between atoms: C_2  and  C_3 
REMARK    2  A    between atoms: C_3  and  O_6 
REMARK    3  A    between atoms: C_3  and  C_4 
REMARK    4  A    between atoms: C_7  and  O_6 
REMARK    5  A    between atoms: C_9  and  C_10 
REMARK    6  A    between atoms: N_15  and  C_14 
REMARK    7  A    between atoms: N_20  and  C_19 
REMARK       I    between atoms: C_22  and  N_20 
ROOT
ATOM      1  C   LIG d   1      -8.539  74.807 118.456  0.00  0.00     0.161 C 
ATOM      2  C   LIG d   1      -9.059  73.503 118.523  0.00  0.00     0.016 C 
ATOM      3  C   LIG d   1      -8.308  72.349 118.202  0.00  0.00     0.038 C 
ATOM      4  C   LIG d   1      -6.932  72.410 117.935  0.00  0.00     0.028 C 
ATOM      5  C   LIG d   1      -6.485  73.751 117.363  0.00  0.00    -0.047 C 
ATOM      6  C   LIG d   1      -7.009  74.885 118.274  0.00  0.00     0.091 C 
ENDROOT
BRANCH   1   7
ATOM      7  O   LIG d   1      -8.944  75.555 119.619  0.00  0.00    -0.368 OA
BRANCH   7   8
ATOM      8  C   LIG d   1     -10.208  76.257 119.518  0.00  0.00     0.119 C 
BRANCH   8   9
ATOM      9  C   LIG d   1     -10.197  77.040 118.191  0.00  0.00     0.028 C 
ATOM     10  C   LIG d   1      -9.566  78.435 118.338  0.00  0.00     0.006 C 
ENDBRANCH   8   9
BRANCH   8  11
ATOM     11  C   LIG d   1     -10.346  77.317 120.614  0.00  0.00     0.028 C 
ATOM     12  C   LIG d   1     -11.730  77.307 121.283  0.00  0.00     0.006 C 
ENDBRANCH   8  11
ENDBRANCH   7   8
ENDBRANCH   1   7
BRANCH   6  13
ATOM     13  N   LIG d   1      -6.688  76.235 117.741  0.00  0.00    -0.311 N 
ATOM     14  C   LIG d   1      -6.020  77.156 118.433  0.00  0.00     0.210 C 
ATOM     15  C   LIG d   1      -5.813  78.488 117.704  0.00  0.00     0.109 C 
ATOM     16  O   LIG d   1      -5.552  76.986 119.569  0.00  0.00    -0.276 OA
ATOM     17  H   LIG d   1      -7.003  76.446 116.814  0.00  0.00     0.149 HD
ENDBRANCH   6  13
BRANCH   5  18
ATOM     18  N   LIG d   1      -5.014  73.725 117.262  0.00  0.00     0.381 N 
ATOM     19  H   LIG d   1      -4.658  74.660 117.253  0.00  0.00    -0.090 HD
ATOM     20  H   LIG d   1      -4.755  73.280 116.399  0.00  0.00    -0.090 HD
ATOM     21  H   LIG d   1      -4.628  73.222 118.031  0.00  0.00    -0.090 HD
ENDBRANCH   5  18
BRANCH   3  22
ATOM     22  C   LIG d   1      -8.943  71.120 118.107  0.00  0.00     0.382 C 
ATOM     23  O   LIG d   1      -9.781  70.779 118.976  0.00  0.00    -0.241 OA
ATOM     24  O   LIG d   1      -8.657  70.331 117.187  0.00  0.00    -0.241 OA
ENDBRANCH   3  22
TORSDOF 7
ENDMDL
