MODEL 1
REMARK VINA RESULT:      -5.5      0.000      0.000
REMARK  7 active torsions:
REMARK  status: ('A' for Active; 'I' for Inactive)
REMARK    1  A    between atoms: C_2  and  C_3 
REMARK    2  A    between atoms: C_3  and  O_6 
REMARK    3  A    between atoms: C_3  and  C_4 
REMARK    4  A    between atoms: C_7  and  O_6 
REMARK    5  A    between atoms: C_9  and  C_10 
REMARK    6  A    between atoms: N_15  and  C_14 
REMARK    7  A    between atoms: N_20  and  C_19 
REMARK       I    between atoms: C_22  and  N_20 
ROOT
ATOM      1  C   LIG d   1      -5.543  92.029 117.880  0.00  0.00     0.161 C 
ATOM      2  C   LIG d   1      -5.912  91.290 116.744  0.00  0.00     0.016 C 
ATOM      3  C   LIG d   1      -6.647  91.834 115.666  0.00  0.00     0.038 C 
ATOM      4  C   LIG d   1      -6.936  93.204 115.582  0.00  0.00     0.028 C 
ATOM      5  C   LIG d   1      -7.023  93.889 116.942  0.00  0.00    -0.047 C 
ATOM      6  C   LIG d   1      -5.752  93.553 117.755  0.00  0.00     0.091 C 
ENDROOT
BRANCH   1   7
ATOM      7  O   LIG d   1      -4.175  91.739 118.229  0.00  0.00    -0.368 OA
BRANCH   7   8
ATOM      8  C   LIG d   1      -3.969  91.080 119.503  0.00  0.00     0.119 C 
BRANCH   8   9
ATOM      9  C   LIG d   1      -3.056  91.987 120.351  0.00  0.00     0.028 C 
ATOM     10  C   LIG d   1      -2.264  92.988 119.493  0.00  0.00     0.006 C 
ENDBRANCH   8   9
BRANCH   8  11
ATOM     11  C   LIG d   1      -3.195  89.770 119.335  0.00  0.00     0.028 C 
ATOM     12  C   LIG d   1      -2.839  89.472 117.869  0.00  0.00     0.006 C 
ENDBRANCH   8  11
ENDBRANCH   7   8
ENDBRANCH   1   7
BRANCH   6  13
ATOM     13  N   LIG d   1      -5.795  94.115 119.131  0.00  0.00    -0.311 N 
ATOM     14  C   LIG d   1      -5.203  95.257 119.474  0.00  0.00     0.210 C 
ATOM     15  C   LIG d   1      -5.353  95.645 120.949  0.00  0.00     0.109 C 
ATOM     16  O   LIG d   1      -4.595  96.002 118.691  0.00  0.00    -0.276 OA
ATOM     17  H   LIG d   1      -6.294  93.591 119.822  0.00  0.00     0.149 HD
ENDBRANCH   6  13
BRANCH   5  18
ATOM     18  N   LIG d   1      -7.191  95.335 116.702  0.00  0.00     0.381 N 
ATOM     19  H   LIG d   1      -8.062  95.643 117.087  0.00  0.00    -0.090 HD
ATOM     20  H   LIG d   1      -7.207  95.501 115.711  0.00  0.00    -0.090 HD
ATOM     21  H   LIG d   1      -6.439  95.839 117.118  0.00  0.00    -0.090 HD
ENDBRANCH   5  18
BRANCH   3  22
ATOM     22  C   LIG d   1      -7.137  90.996 114.676  0.00  0.00     0.382 C 
ATOM     23  O   LIG d   1      -7.901  91.451 113.791  0.00  0.00    -0.241 OA
ATOM     24  O   LIG d   1      -6.860  89.781 114.682  0.00  0.00    -0.241 OA
ENDBRANCH   3  22
TORSDOF 7
ENDMDL
MODEL 2
REMARK VINA RESULT:      -4.8      1.773      4.870
REMARK  7 active torsions:
REMARK  status: ('A' for Active; 'I' for Inactive)
REMARK    1  A    between atoms: C_2  and  C_3 
REMARK    2  A    between atoms: C_3  and  O_6 
REMARK    3  A    between atoms: C_3  and  C_4 
REMARK    4  A    between atoms: C_7  and  O_6 
REMARK    5  A    between atoms: C_9  and  C_10 
REMARK    6  A    between atoms: N_15  and  C_14 
REMARK    7  A    between atoms: N_20  and  C_19 
REMARK       I    between atoms: C_22  and  N_20 
ROOT
ATOM      1  C   LIG d   1      -4.845  93.410 117.874  0.00  0.00     0.161 C 
ATOM      2  C   LIG d   1      -4.764  94.612 118.596  0.00  0.00     0.016 C 
ATOM      3  C   LIG d   1      -5.748  95.626 118.533  0.00  0.00     0.038 C 
ATOM      4  C   LIG d   1      -6.962  95.439 117.855  0.00  0.00     0.028 C 
ATOM      5  C   LIG d   1      -6.865  94.445 116.702  0.00  0.00    -0.047 C 
ATOM      6  C   LIG d   1      -6.214  93.141 117.217  0.00  0.00     0.091 C 
ENDROOT
BRANCH   1   7
ATOM      7  O   LIG d   1      -4.470  92.306 118.721  0.00  0.00    -0.368 OA
BRANCH   7   8
ATOM      8  C   LIG d   1      -3.218  91.652 118.400  0.00  0.00     0.119 C 
BRANCH   8   9
ATOM      9  C   LIG d   1      -3.493  90.137 118.323  0.00  0.00     0.028 C 
ATOM     10  C   LIG d   1      -2.228  89.327 117.991  0.00  0.00     0.006 C 
ENDBRANCH   8   9
BRANCH   8  11
ATOM     11  C   LIG d   1      -2.195  91.821 119.526  0.00  0.00     0.028 C 
ATOM     12  C   LIG d   1      -1.365  93.108 119.389  0.00  0.00     0.006 C 
ENDBRANCH   8  11
ENDBRANCH   7   8
ENDBRANCH   1   7
BRANCH   6  13
ATOM     13  N   LIG d   1      -6.005  92.146 116.133  0.00  0.00    -0.311 N 
ATOM     14  C   LIG d   1      -6.332  90.860 116.245  0.00  0.00     0.210 C 
ATOM     15  C   LIG d   1      -6.013  90.002 115.017  0.00  0.00     0.109 C 
ATOM     16  O   LIG d   1      -6.885  90.355 117.234  0.00  0.00    -0.276 OA
ATOM     17  H   LIG d   1      -5.590  92.477 115.284  0.00  0.00     0.149 HD
ENDBRANCH   6  13
BRANCH   5  18
ATOM     18  N   LIG d   1      -8.227  94.242 116.174  0.00  0.00     0.381 N 
ATOM     19  H   LIG d   1      -8.236  93.459 115.551  0.00  0.00    -0.090 HD
ATOM     20  H   LIG d   1      -8.501  95.059 115.657  0.00  0.00    -0.090 HD
ATOM     21  H   LIG d   1      -8.864  94.086 116.923  0.00  0.00    -0.090 HD
ENDBRANCH   5  18
BRANCH   3  22
ATOM     22  C   LIG d   1      -5.505  96.858 119.120  0.00  0.00     0.382 C 
ATOM     23  O   LIG d   1      -4.911  96.920 120.224  0.00  0.00    -0.241 OA
ATOM     24  O   LIG d   1      -5.910  97.905 118.582  0.00  0.00    -0.241 OA
ENDBRANCH   3  22
TORSDOF 7
ENDMDL
MODEL 3
REMARK VINA RESULT:      -4.5      2.029      4.226
REMARK  7 active torsions:
REMARK  status: ('A' for Active; 'I' for Inactive)
REMARK    1  A    between atoms: C_2  and  C_3 
REMARK    2  A    between atoms: C_3  and  O_6 
REMARK    3  A    between atoms: C_3  and  C_4 
REMARK    4  A    between atoms: C_7  and  O_6 
REMARK    5  A    between atoms: C_9  and  C_10 
REMARK    6  A    between atoms: N_15  and  C_14 
REMARK    7  A    between atoms: N_20  and  C_19 
REMARK       I    between atoms: C_22  and  N_20 
ROOT
ATOM      1  C   LIG d   1      -7.027  93.335 117.726  0.00  0.00     0.161 C 
ATOM      2  C   LIG d   1      -7.358  92.612 116.568  0.00  0.00     0.016 C 
ATOM      3  C   LIG d   1      -6.729  91.399 116.202  0.00  0.00     0.038 C 
ATOM      4  C   LIG d   1      -5.827  90.745 117.054  0.00  0.00     0.028 C 
ATOM      5  C   LIG d   1      -5.090  91.691 117.997  0.00  0.00    -0.047 C 
ATOM      6  C   LIG d   1      -6.124  92.581 118.724  0.00  0.00     0.091 C 
ENDROOT
BRANCH   1   7
ATOM      7  O   LIG d   1      -8.230  93.786 118.380  0.00  0.00    -0.368 OA
BRANCH   7   8
ATOM      8  C   LIG d   1      -8.504  95.206 118.303  0.00  0.00     0.119 C 
BRANCH   8   9
ATOM      9  C   LIG d   1      -7.436  95.834 117.386  0.00  0.00     0.028 C 
ATOM     10  C   LIG d   1      -6.919  97.179 117.923  0.00  0.00     0.006 C 
ENDBRANCH   8   9
BRANCH   8  11
ATOM     11  C   LIG d   1      -8.319  95.884 119.664  0.00  0.00     0.028 C 
ATOM     12  C   LIG d   1      -8.490  94.912 120.842  0.00  0.00     0.006 C 
ENDBRANCH   8  11
ENDBRANCH   7   8
ENDBRANCH   1   7
BRANCH   6  13
ATOM     13  N   LIG d   1      -5.482  93.592 119.603  0.00  0.00    -0.311 N 
ATOM     14  C   LIG d   1      -4.584  94.476 119.170  0.00  0.00     0.210 C 
ATOM     15  C   LIG d   1      -4.032  95.416 120.246  0.00  0.00     0.109 C 
ATOM     16  O   LIG d   1      -4.217  94.591 117.992  0.00  0.00    -0.276 OA
ATOM     17  H   LIG d   1      -5.746  93.590 120.569  0.00  0.00     0.149 HD
ENDBRANCH   6  13
BRANCH   5  18
ATOM     18  N   LIG d   1      -4.288  90.865 118.919  0.00  0.00     0.381 N 
ATOM     19  H   LIG d   1      -3.558  90.404 118.413  0.00  0.00    -0.090 HD
ATOM     20  H   LIG d   1      -4.881  90.163 119.326  0.00  0.00    -0.090 HD
ATOM     21  H   LIG d   1      -3.896  91.436 119.635  0.00  0.00    -0.090 HD
ENDBRANCH   5  18
BRANCH   3  22
ATOM     22  C   LIG d   1      -6.973  90.849 114.953  0.00  0.00     0.382 C 
ATOM     23  O   LIG d   1      -6.495  89.727 114.658  0.00  0.00    -0.241 OA
ATOM     24  O   LIG d   1      -7.627  91.480 114.101  0.00  0.00    -0.241 OA
ENDBRANCH   3  22
TORSDOF 7
ENDMDL
MODEL 4
REMARK VINA RESULT:      -4.4     26.305     28.080
REMARK  7 active torsions:
REMARK  status: ('A' for Active; 'I' for Inactive)
REMARK    1  A    between atoms: C_2  and  C_3 
REMARK    2  A    between atoms: C_3  and  O_6 
REMARK    3  A    between atoms: C_3  and  C_4 
REMARK    4  A    between atoms: C_7  and  O_6 
REMARK    5  A    between atoms: C_9  and  C_10 
REMARK    6  A    between atoms: N_15  and  C_14 
REMARK    7  A    between atoms: N_20  and  C_19 
REMARK       I    between atoms: C_22  and  N_20 
ROOT
ATOM      1  C   LIG d   1     -16.341  68.140 117.675  0.00  0.00     0.161 C 
ATOM      2  C   LIG d   1     -17.064  67.943 118.863  0.00  0.00     0.016 C 
ATOM      3  C   LIG d   1     -18.249  67.174 118.935  0.00  0.00     0.038 C 
ATOM      4  C   LIG d   1     -18.710  66.420 117.846  0.00  0.00     0.028 C 
ATOM      5  C   LIG d   1     -18.295  66.991 116.495  0.00  0.00    -0.047 C 
ATOM      6  C   LIG d   1     -16.768  67.234 116.501  0.00  0.00     0.091 C 
ENDROOT
BRANCH   1   7
ATOM      7  O   LIG d   1     -14.930  67.995 117.932  0.00  0.00    -0.368 OA
BRANCH   7   8
ATOM      8  C   LIG d   1     -14.560  66.991 118.908  0.00  0.00     0.119 C 
BRANCH   8   9
ATOM      9  C   LIG d   1     -13.274  67.474 119.605  0.00  0.00     0.028 C 
ATOM     10  C   LIG d   1     -13.556  68.131 120.967  0.00  0.00     0.006 C 
ENDBRANCH   8   9
BRANCH   8  11
ATOM     11  C   LIG d   1     -14.182  65.669 118.232  0.00  0.00     0.028 C 
ATOM     12  C   LIG d   1     -15.150  64.526 118.576  0.00  0.00     0.006 C 
ENDBRANCH   8  11
ENDBRANCH   7   8
ENDBRANCH   1   7
BRANCH   6  13
ATOM     13  N   LIG d   1     -16.290  67.870 115.246  0.00  0.00    -0.311 N 
ATOM     14  C   LIG d   1     -15.303  67.375 114.502  0.00  0.00     0.210 C 
ATOM     15  C   LIG d   1     -14.954  68.198 113.258  0.00  0.00     0.109 C 
ATOM     16  O   LIG d   1     -14.704  66.315 114.738  0.00  0.00    -0.276 OA
ATOM     17  H   LIG d   1     -16.742  68.718 114.963  0.00  0.00     0.149 HD
ENDBRANCH   6  13
BRANCH   5  18
ATOM     18  N   LIG d   1     -18.723  66.035 115.456  0.00  0.00     0.381 N 
ATOM     19  H   LIG d   1     -19.488  66.418 114.938  0.00  0.00    -0.090 HD
ATOM     20  H   LIG d   1     -19.036  65.190 115.902  0.00  0.00    -0.090 HD
ATOM     21  H   LIG d   1     -17.964  65.834 114.843  0.00  0.00    -0.090 HD
ENDBRANCH   5  18
BRANCH   3  22
ATOM     22  C   LIG d   1     -19.007  67.187 120.097  0.00  0.00     0.382 C 
ATOM     23  O   LIG d   1     -18.499  67.585 121.172  0.00  0.00    -0.241 OA
ATOM     24  O   LIG d   1     -20.178  66.763 120.091  0.00  0.00    -0.241 OA
ENDBRANCH   3  22
TORSDOF 7
ENDMDL
MODEL 5
REMARK VINA RESULT:      -4.4     26.892     28.948
REMARK  7 active torsions:
REMARK  status: ('A' for Active; 'I' for Inactive)
REMARK    1  A    between atoms: C_2  and  C_3 
REMARK    2  A    between atoms: C_3  and  O_6 
REMARK    3  A    between atoms: C_3  and  C_4 
REMARK    4  A    between atoms: C_7  and  O_6 
REMARK    5  A    between atoms: C_9  and  C_10 
REMARK    6  A    between atoms: N_15  and  C_14 
REMARK    7  A    between atoms: N_20  and  C_19 
REMARK       I    between atoms: C_22  and  N_20 
ROOT
ATOM      1  C   LIG d   1     -14.808  65.897 116.689  0.00  0.00     0.161 C 
ATOM      2  C   LIG d   1     -14.650  66.991 115.821  0.00  0.00     0.016 C 
ATOM      3  C   LIG d   1     -15.185  67.031 114.514  0.00  0.00     0.038 C 
ATOM      4  C   LIG d   1     -16.049  66.035 114.035  0.00  0.00     0.028 C 
ATOM      5  C   LIG d   1     -15.827  64.675 114.689  0.00  0.00    -0.047 C 
ATOM      6  C   LIG d   1     -15.841  64.848 116.225  0.00  0.00     0.091 C 
ENDROOT
BRANCH   1   7
ATOM      7  O   LIG d   1     -15.129  66.366 118.013  0.00  0.00    -0.368 OA
BRANCH   7   8
ATOM      8  C   LIG d   1     -15.933  67.569 118.085  0.00  0.00     0.119 C 
BRANCH   8   9
ATOM      9  C   LIG d   1     -15.423  68.395 119.282  0.00  0.00     0.028 C 
ATOM     10  C   LIG d   1     -14.212  67.744 119.971  0.00  0.00     0.006 C 
ENDBRANCH   8   9
BRANCH   8  11
ATOM     11  C   LIG d   1     -17.394  67.244 118.411  0.00  0.00     0.028 C 
ATOM     12  C   LIG d   1     -18.297  67.250 117.167  0.00  0.00     0.006 C 
ENDBRANCH   8  11
ENDBRANCH   7   8
ENDBRANCH   1   7
BRANCH   6  13
ATOM     13  N   LIG d   1     -15.546  63.580 116.941  0.00  0.00    -0.311 N 
ATOM     14  C   LIG d   1     -16.490  62.742 117.366  0.00  0.00     0.210 C 
ATOM     15  C   LIG d   1     -15.971  61.501 118.100  0.00  0.00     0.109 C 
ATOM     16  O   LIG d   1     -17.707  62.892 117.177  0.00  0.00    -0.276 OA
ATOM     17  H   LIG d   1     -14.583  63.364 117.110  0.00  0.00     0.149 HD
ENDBRANCH   6  13
BRANCH   5  18
ATOM     18  N   LIG d   1     -16.882  63.767 114.200  0.00  0.00     0.381 N 
ATOM     19  H   LIG d   1     -16.610  63.373 113.322  0.00  0.00    -0.090 HD
ATOM     20  H   LIG d   1     -17.726  64.295 114.061  0.00  0.00    -0.090 HD
ATOM     21  H   LIG d   1     -17.042  63.041 114.864  0.00  0.00    -0.090 HD
ENDBRANCH   5  18
BRANCH   3  22
ATOM     22  C   LIG d   1     -14.824  68.058 113.654  0.00  0.00     0.382 C 
ATOM     23  O   LIG d   1     -15.710  68.714 113.055  0.00  0.00    -0.241 OA
ATOM     24  O   LIG d   1     -13.624  68.307 113.437  0.00  0.00    -0.241 OA
ENDBRANCH   3  22
TORSDOF 7
ENDMDL
MODEL 6
REMARK VINA RESULT:      -4.4      2.594      4.344
REMARK  7 active torsions:
REMARK  status: ('A' for Active; 'I' for Inactive)
REMARK    1  A    between atoms: C_2  and  C_3 
REMARK    2  A    between atoms: C_3  and  O_6 
REMARK    3  A    between atoms: C_3  and  C_4 
REMARK    4  A    between atoms: C_7  and  O_6 
REMARK    5  A    between atoms: C_9  and  C_10 
REMARK    6  A    between atoms: N_15  and  C_14 
REMARK    7  A    between atoms: N_20  and  C_19 
REMARK       I    between atoms: C_22  and  N_20 
ROOT
ATOM      1  C   LIG d   1      -5.160  92.314 119.783  0.00  0.00     0.161 C 
ATOM      2  C   LIG d   1      -4.020  91.591 119.395  0.00  0.00     0.016 C 
ATOM      3  C   LIG d   1      -3.982  90.747 118.261  0.00  0.00     0.038 C 
ATOM      4  C   LIG d   1      -5.044  90.686 117.347  0.00  0.00     0.028 C 
ATOM      5  C   LIG d   1      -6.398  91.008 117.968  0.00  0.00    -0.047 C 
ATOM      6  C   LIG d   1      -6.293  92.346 118.735  0.00  0.00     0.091 C 
ENDROOT
BRANCH   1   7
ATOM      7  O   LIG d   1      -4.785  93.654 120.157  0.00  0.00    -0.368 OA
BRANCH   7   8
ATOM      8  C   LIG d   1      -3.876  94.336 119.258  0.00  0.00     0.119 C 
BRANCH   8   9
ATOM      9  C   LIG d   1      -2.795  95.016 120.121  0.00  0.00     0.028 C 
ATOM     10  C   LIG d   1      -1.502  94.187 120.202  0.00  0.00     0.006 C 
ENDBRANCH   8   9
BRANCH   8  11
ATOM     11  C   LIG d   1      -4.578  95.476 118.515  0.00  0.00     0.028 C 
ATOM     12  C   LIG d   1      -5.811  96.005 119.263  0.00  0.00     0.006 C 
ENDBRANCH   8  11
ENDBRANCH   7   8
ENDBRANCH   1   7
BRANCH   6  13
ATOM     13  N   LIG d   1      -7.551  92.694 119.444  0.00  0.00    -0.311 N 
ATOM     14  C   LIG d   1      -8.553  93.362 118.875  0.00  0.00     0.210 C 
ATOM     15  C   LIG d   1      -9.752  93.634 119.789  0.00  0.00     0.109 C 
ATOM     16  O   LIG d   1      -8.577  93.726 117.689  0.00  0.00    -0.276 OA
ATOM     17  H   LIG d   1      -7.630  92.409 120.401  0.00  0.00     0.149 HD
ENDBRANCH   6  13
BRANCH   5  18
ATOM     18  N   LIG d   1      -7.392  91.043 116.879  0.00  0.00     0.381 N 
ATOM     19  H   LIG d   1      -7.806  91.953 116.827  0.00  0.00    -0.090 HD
ATOM     20  H   LIG d   1      -8.118  90.378 117.079  0.00  0.00    -0.090 HD
ATOM     21  H   LIG d   1      -6.955  90.819 116.012  0.00  0.00    -0.090 HD
ENDBRANCH   5  18
BRANCH   3  22
ATOM     22  C   LIG d   1      -2.887  89.921 118.055  0.00  0.00     0.382 C 
ATOM     23  O   LIG d   1      -2.964  88.699 118.325  0.00  0.00    -0.241 OA
ATOM     24  O   LIG d   1      -1.809  90.392 117.645  0.00  0.00    -0.241 OA
ENDBRANCH   3  22
TORSDOF 7
ENDMDL
MODEL 7
REMARK VINA RESULT:      -4.4     27.502     29.742
REMARK  7 active torsions:
REMARK  status: ('A' for Active; 'I' for Inactive)
REMARK    1  A    between atoms: C_2  and  C_3 
REMARK    2  A    between atoms: C_3  and  O_6 
REMARK    3  A    between atoms: C_3  and  C_4 
REMARK    4  A    between atoms: C_7  and  O_6 
REMARK    5  A    between atoms: C_9  and  C_10 
REMARK    6  A    between atoms: N_15  and  C_14 
REMARK    7  A    between atoms: N_20  and  C_19 
REMARK       I    between atoms: C_22  and  N_20 
ROOT
ATOM      1  C   LIG d   1     -16.323  64.963 117.323  0.00  0.00     0.161 C 
ATOM      2  C   LIG d   1     -16.426  66.358 117.185  0.00  0.00     0.016 C 
ATOM      3  C   LIG d   1     -15.648  67.273 117.931  0.00  0.00     0.038 C 
ATOM      4  C   LIG d   1     -14.601  66.850 118.764  0.00  0.00     0.028 C 
ATOM      5  C   LIG d   1     -14.798  65.442 119.316  0.00  0.00    -0.047 C 
ATOM      6  C   LIG d   1     -15.109  64.482 118.145  0.00  0.00     0.091 C 
ENDROOT
BRANCH   1   7
ATOM      7  O   LIG d   1     -16.326  64.342 116.022  0.00  0.00    -0.368 OA
BRANCH   7   8
ATOM      8  C   LIG d   1     -17.013  65.066 114.972  0.00  0.00     0.119 C 
BRANCH   8   9
ATOM      9  C   LIG d   1     -18.218  64.212 114.534  0.00  0.00     0.028 C 
ATOM     10  C   LIG d   1     -19.507  64.587 115.284  0.00  0.00     0.006 C 
ENDBRANCH   8   9
BRANCH   8  11
ATOM     11  C   LIG d   1     -16.136  65.200 113.723  0.00  0.00     0.028 C 
ATOM     12  C   LIG d   1     -15.572  66.618 113.541  0.00  0.00     0.006 C 
ENDBRANCH   8  11
ENDBRANCH   7   8
ENDBRANCH   1   7
BRANCH   6  13
ATOM     13  N   LIG d   1     -15.398  63.100 118.606  0.00  0.00    -0.311 N 
ATOM     14  C   LIG d   1     -14.477  62.139 118.666  0.00  0.00     0.210 C 
ATOM     15  C   LIG d   1     -14.991  60.780 119.152  0.00  0.00     0.109 C 
ATOM     16  O   LIG d   1     -13.277  62.292 118.394  0.00  0.00    -0.276 OA
ATOM     17  H   LIG d   1     -16.341  62.896 118.876  0.00  0.00     0.149 HD
ENDBRANCH   6  13
BRANCH   5  18
ATOM     18  N   LIG d   1     -13.572  65.077 120.052  0.00  0.00     0.381 N 
ATOM     19  H   LIG d   1     -12.773  65.465 119.593  0.00  0.00    -0.090 HD
ATOM     20  H   LIG d   1     -13.480  64.076 120.054  0.00  0.00    -0.090 HD
ATOM     21  H   LIG d   1     -13.624  65.415 120.988  0.00  0.00    -0.090 HD
ENDBRANCH   5  18
BRANCH   3  22
ATOM     22  C   LIG d   1     -15.942  68.627 117.879  0.00  0.00     0.382 C 
ATOM     23  O   LIG d   1     -16.228  69.247 118.931  0.00  0.00    -0.241 OA
ATOM     24  O   LIG d   1     -15.968  69.226 116.787  0.00  0.00    -0.241 OA
ENDBRANCH   3  22
TORSDOF 7
ENDMDL
MODEL 8
REMARK VINA RESULT:      -4.3      6.592      9.064
REMARK  7 active torsions:
REMARK  status: ('A' for Active; 'I' for Inactive)
REMARK    1  A    between atoms: C_2  and  C_3 
REMARK    2  A    between atoms: C_3  and  O_6 
REMARK    3  A    between atoms: C_3  and  C_4 
REMARK    4  A    between atoms: C_7  and  O_6 
REMARK    5  A    between atoms: C_9  and  C_10 
REMARK    6  A    between atoms: N_15  and  C_14 
REMARK    7  A    between atoms: N_20  and  C_19 
REMARK       I    between atoms: C_22  and  N_20 
ROOT
ATOM      1  C   LIG d   1       1.465  88.175 116.429  0.00  0.00     0.161 C 
ATOM      2  C   LIG d   1       0.145  87.924 116.839  0.00  0.00     0.016 C 
ATOM      3  C   LIG d   1      -0.679  88.898 117.447  0.00  0.00     0.038 C 
ATOM      4  C   LIG d   1      -0.288  90.241 117.550  0.00  0.00     0.028 C 
ATOM      5  C   LIG d   1       1.224  90.429 117.609  0.00  0.00    -0.047 C 
ATOM      6  C   LIG d   1       1.871  89.664 116.432  0.00  0.00     0.091 C 
ENDROOT
BRANCH   1   7
ATOM      7  O   LIG d   1       1.692  87.597 115.128  0.00  0.00    -0.368 OA
BRANCH   7   8
ATOM      8  C   LIG d   1       2.278  86.272 115.113  0.00  0.00     0.119 C 
BRANCH   8   9
ATOM      9  C   LIG d   1       3.802  86.442 114.961  0.00  0.00     0.028 C 
ATOM     10  C   LIG d   1       4.554  86.197 116.280  0.00  0.00     0.006 C 
ENDBRANCH   8   9
BRANCH   8  11
ATOM     11  C   LIG d   1       1.833  85.480 113.880  0.00  0.00     0.028 C 
ATOM     12  C   LIG d   1       2.938  84.566 113.328  0.00  0.00     0.006 C 
ENDBRANCH   8  11
ENDBRANCH   7   8
ENDBRANCH   1   7
BRANCH   6  13
ATOM     13  N   LIG d   1       3.356  89.726 116.463  0.00  0.00    -0.311 N 
ATOM     14  C   LIG d   1       4.101  90.004 115.395  0.00  0.00     0.210 C 
ATOM     15  C   LIG d   1       5.613  89.997 115.642  0.00  0.00     0.109 C 
ATOM     16  O   LIG d   1       3.652  90.287 114.274  0.00  0.00    -0.276 OA
ATOM     17  H   LIG d   1       3.801  89.539 117.340  0.00  0.00     0.149 HD
ENDBRANCH   6  13
BRANCH   5  18
ATOM     18  N   LIG d   1       1.495  91.878 117.576  0.00  0.00     0.381 N 
ATOM     19  H   LIG d   1       2.341  92.053 117.071  0.00  0.00    -0.090 HD
ATOM     20  H   LIG d   1       1.615  92.208 118.517  0.00  0.00    -0.090 HD
ATOM     21  H   LIG d   1       0.736  92.357 117.143  0.00  0.00    -0.090 HD
ENDBRANCH   5  18
BRANCH   3  22
ATOM     22  C   LIG d   1      -1.896  88.522 117.996  0.00  0.00     0.382 C 
ATOM     23  O   LIG d   1      -2.951  89.096 117.635  0.00  0.00    -0.241 OA
ATOM     24  O   LIG d   1      -1.946  87.647 118.881  0.00  0.00    -0.241 OA
ENDBRANCH   3  22
TORSDOF 7
ENDMDL
MODEL 9
REMARK VINA RESULT:      -4.3     20.459     23.044
REMARK  7 active torsions:
REMARK  status: ('A' for Active; 'I' for Inactive)
REMARK    1  A    between atoms: C_2  and  C_3 
REMARK    2  A    between atoms: C_3  and  O_6 
REMARK    3  A    between atoms: C_3  and  C_4 
REMARK    4  A    between atoms: C_7  and  O_6 
REMARK    5  A    between atoms: C_9  and  C_10 
REMARK    6  A    between atoms: N_15  and  C_14 
REMARK    7  A    between atoms: N_20  and  C_19 
REMARK       I    between atoms: C_22  and  N_20 
ROOT
ATOM      1  C   LIG d   1      12.271  78.023 114.769  0.00  0.00     0.161 C 
ATOM      2  C   LIG d   1      11.083  77.274 114.737  0.00  0.00     0.016 C 
ATOM      3  C   LIG d   1       9.826  77.792 115.124  0.00  0.00     0.038 C 
ATOM      4  C   LIG d   1       9.645  79.149 115.428  0.00  0.00     0.028 C 
ATOM      5  C   LIG d   1      10.905  79.824 115.960  0.00  0.00    -0.047 C 
ATOM      6  C   LIG d   1      12.075  79.537 114.992  0.00  0.00     0.091 C 
ENDROOT
BRANCH   1   7
ATOM      7  O   LIG d   1      13.030  77.788 113.566  0.00  0.00    -0.368 OA
BRANCH   7   8
ATOM      8  C   LIG d   1      14.178  76.914 113.697  0.00  0.00     0.119 C 
BRANCH   8   9
ATOM      9  C   LIG d   1      14.478  76.767 115.201  0.00  0.00     0.028 C 
ATOM     10  C   LIG d   1      14.384  75.308 115.679  0.00  0.00     0.006 C 
ENDBRANCH   8   9
BRANCH   8  11
ATOM     11  C   LIG d   1      15.433  77.549 113.092  0.00  0.00     0.028 C 
ATOM     12  C   LIG d   1      16.530  77.813 114.137  0.00  0.00     0.006 C 
ENDBRANCH   8  11
ENDBRANCH   7   8
ENDBRANCH   1   7
BRANCH   6  13
ATOM     13  N   LIG d   1      13.364  80.091 115.481  0.00  0.00    -0.311 N 
ATOM     14  C   LIG d   1      14.227  80.740 114.701  0.00  0.00     0.210 C 
ATOM     15  C   LIG d   1      15.505  81.211 115.402  0.00  0.00     0.109 C 
ATOM     16  O   LIG d   1      14.040  80.999 113.503  0.00  0.00    -0.276 OA
ATOM     17  H   LIG d   1      13.582  79.953 116.449  0.00  0.00     0.149 HD
ENDBRANCH   6  13
BRANCH   5  18
ATOM     18  N   LIG d   1      10.613  81.262 116.105  0.00  0.00     0.381 N 
ATOM     19  H   LIG d   1      11.457  81.761 116.302  0.00  0.00    -0.090 HD
ATOM     20  H   LIG d   1       9.983  81.390 116.878  0.00  0.00    -0.090 HD
ATOM     21  H   LIG d   1      10.199  81.612 115.269  0.00  0.00    -0.090 HD
ENDBRANCH   5  18
BRANCH   3  22
ATOM     22  C   LIG d   1       8.740  76.939 115.248  0.00  0.00     0.382 C 
ATOM     23  O   LIG d   1       8.592  75.990 114.440  0.00  0.00    -0.241 OA
ATOM     24  O   LIG d   1       7.882  77.132 116.130  0.00  0.00    -0.241 OA
ENDBRANCH   3  22
TORSDOF 7
ENDMDL
