MODEL 1
REMARK VINA RESULT:      -5.1      0.000      0.000
REMARK  7 active torsions:
REMARK  status: ('A' for Active; 'I' for Inactive)
REMARK    1  A    between atoms: C_2  and  C_3 
REMARK    2  A    between atoms: C_3  and  O_6 
REMARK    3  A    between atoms: C_3  and  C_4 
REMARK    4  A    between atoms: C_7  and  O_6 
REMARK    5  A    between atoms: C_9  and  C_10 
REMARK    6  A    between atoms: N_15  and  C_14 
REMARK    7  A    between atoms: N_20  and  C_19 
REMARK       I    between atoms: C_22  and  N_20 
ROOT
ATOM      1  C   LIG d   1      -7.785  75.385 118.106  0.00  0.00     0.161 C 
ATOM      2  C   LIG d   1      -9.165  75.484 118.352  0.00  0.00     0.016 C 
ATOM      3  C   LIG d   1      -9.834  76.714 118.551  0.00  0.00     0.038 C 
ATOM      4  C   LIG d   1      -9.190  77.946 118.364  0.00  0.00     0.028 C 
ATOM      5  C   LIG d   1      -7.686  77.888 118.612  0.00  0.00    -0.047 C 
ATOM      6  C   LIG d   1      -7.087  76.724 117.789  0.00  0.00     0.091 C 
ENDROOT
BRANCH   1   7
ATOM      7  O   LIG d   1      -7.544  74.433 117.051  0.00  0.00    -0.368 OA
BRANCH   7   8
ATOM      8  C   LIG d   1      -6.976  73.163 117.456  0.00  0.00     0.119 C 
BRANCH   8   9
ATOM      9  C   LIG d   1      -5.599  73.035 116.777  0.00  0.00     0.028 C 
ATOM     10  C   LIG d   1      -5.483  73.905 115.514  0.00  0.00     0.006 C 
ENDBRANCH   8   9
BRANCH   8  11
ATOM     11  C   LIG d   1      -7.802  71.988 116.923  0.00  0.00     0.028 C 
ATOM     12  C   LIG d   1      -7.479  70.663 117.632  0.00  0.00     0.006 C 
ENDBRANCH   8  11
ENDBRANCH   7   8
ENDBRANCH   1   7
BRANCH   6  13
ATOM     13  N   LIG d   1      -5.633  76.543 118.038  0.00  0.00    -0.311 N 
ATOM     14  C   LIG d   1      -4.686  77.114 117.296  0.00  0.00     0.210 C 
ATOM     15  C   LIG d   1      -3.250  76.780 117.712  0.00  0.00     0.109 C 
ATOM     16  O   LIG d   1      -4.898  77.890 116.352  0.00  0.00    -0.276 OA
ATOM     17  H   LIG d   1      -5.371  75.954 118.804  0.00  0.00     0.149 HD
ENDBRANCH   6  13
BRANCH   5  18
ATOM     18  N   LIG d   1      -7.124  79.202 118.249  0.00  0.00     0.381 N 
ATOM     19  H   LIG d   1      -7.855  79.810 117.940  0.00  0.00    -0.090 HD
ATOM     20  H   LIG d   1      -6.474  79.080 117.492  0.00  0.00    -0.090 HD
ATOM     21  H   LIG d   1      -6.659  79.602 119.034  0.00  0.00    -0.090 HD
ENDBRANCH   5  18
BRANCH   3  22
ATOM     22  C   LIG d   1     -11.152  76.717 118.978  0.00  0.00     0.382 C 
ATOM     23  O   LIG d   1     -11.991  75.961 118.432  0.00  0.00    -0.241 OA
ATOM     24  O   LIG d   1     -11.524  77.499 119.874  0.00  0.00    -0.241 OA
ENDBRANCH   3  22
TORSDOF 7
ENDMDL
MODEL 2
REMARK VINA RESULT:      -4.9     16.472     18.721
REMARK  7 active torsions:
REMARK  status: ('A' for Active; 'I' for Inactive)
REMARK    1  A    between atoms: C_2  and  C_3 
REMARK    2  A    between atoms: C_3  and  O_6 
REMARK    3  A    between atoms: C_3  and  C_4 
REMARK    4  A    between atoms: C_7  and  O_6 
REMARK    5  A    between atoms: C_9  and  C_10 
REMARK    6  A    between atoms: N_15  and  C_14 
REMARK    7  A    between atoms: N_20  and  C_19 
REMARK       I    between atoms: C_22  and  N_20 
ROOT
ATOM      1  C   LIG d   1       2.371  90.698 116.485  0.00  0.00     0.161 C 
ATOM      2  C   LIG d   1       1.771  89.772 115.614  0.00  0.00     0.016 C 
ATOM      3  C   LIG d   1       2.496  89.014 114.666  0.00  0.00     0.038 C 
ATOM      4  C   LIG d   1       3.898  89.020 114.627  0.00  0.00     0.028 C 
ATOM      5  C   LIG d   1       4.513  90.316 115.145  0.00  0.00    -0.047 C 
ATOM      6  C   LIG d   1       3.912  90.636 116.533  0.00  0.00     0.091 C 
ENDROOT
BRANCH   1   7
ATOM      7  O   LIG d   1       1.822  90.549 117.809  0.00  0.00    -0.368 OA
BRANCH   7   8
ATOM      8  C   LIG d   1       0.815  91.518 118.194  0.00  0.00     0.119 C 
BRANCH   8   9
ATOM      9  C   LIG d   1       1.440  92.434 119.265  0.00  0.00     0.028 C 
ATOM     10  C   LIG d   1       1.642  93.872 118.760  0.00  0.00     0.006 C 
ENDBRANCH   8   9
BRANCH   8  11
ATOM     11  C   LIG d   1      -0.374  90.842 118.883  0.00  0.00     0.028 C 
ATOM     12  C   LIG d   1      -1.444  90.361 117.889  0.00  0.00     0.006 C 
ENDBRANCH   8  11
ENDBRANCH   7   8
ENDBRANCH   1   7
BRANCH   6  13
ATOM     13  N   LIG d   1       4.397  91.933 117.075  0.00  0.00    -0.311 N 
ATOM     14  C   LIG d   1       5.017  92.051 118.248  0.00  0.00     0.210 C 
ATOM     15  C   LIG d   1       5.416  93.480 118.627  0.00  0.00     0.109 C 
ATOM     16  O   LIG d   1       5.302  91.103 118.995  0.00  0.00    -0.276 OA
ATOM     17  H   LIG d   1       4.234  92.749 116.518  0.00  0.00     0.149 HD
ENDBRANCH   6  13
BRANCH   5  18
ATOM     18  N   LIG d   1       5.976  90.133 115.177  0.00  0.00     0.381 N 
ATOM     19  H   LIG d   1       6.337  90.444 116.057  0.00  0.00    -0.090 HD
ATOM     20  H   LIG d   1       6.390  90.691 114.451  0.00  0.00    -0.090 HD
ATOM     21  H   LIG d   1       6.203  89.173 115.038  0.00  0.00    -0.090 HD
ENDBRANCH   5  18
BRANCH   3  22
ATOM     22  C   LIG d   1       1.814  88.268 113.717  0.00  0.00     0.382 C 
ATOM     23  O   LIG d   1       2.169  87.090 113.471  0.00  0.00    -0.241 OA
ATOM     24  O   LIG d   1       0.876  88.774 113.071  0.00  0.00    -0.241 OA
ENDBRANCH   3  22
TORSDOF 7
ENDMDL
MODEL 3
REMARK VINA RESULT:      -4.8      1.569      2.488
REMARK  7 active torsions:
REMARK  status: ('A' for Active; 'I' for Inactive)
REMARK    1  A    between atoms: C_2  and  C_3 
REMARK    2  A    between atoms: C_3  and  O_6 
REMARK    3  A    between atoms: C_3  and  C_4 
REMARK    4  A    between atoms: C_7  and  O_6 
REMARK    5  A    between atoms: C_9  and  C_10 
REMARK    6  A    between atoms: N_15  and  C_14 
REMARK    7  A    between atoms: N_20  and  C_19 
REMARK       I    between atoms: C_22  and  N_20 
ROOT
ATOM      1  C   LIG d   1      -7.761  74.637 117.705  0.00  0.00     0.161 C 
ATOM      2  C   LIG d   1      -9.125  74.512 117.396  0.00  0.00     0.016 C 
ATOM      3  C   LIG d   1     -10.127  75.346 117.945  0.00  0.00     0.038 C 
ATOM      4  C   LIG d   1      -9.811  76.465 118.730  0.00  0.00     0.028 C 
ATOM      5  C   LIG d   1      -8.489  76.328 119.477  0.00  0.00    -0.047 C 
ATOM      6  C   LIG d   1      -7.386  75.922 118.473  0.00  0.00     0.091 C 
ENDROOT
BRANCH   1   7
ATOM      7  O   LIG d   1      -6.975  74.525 116.502  0.00  0.00    -0.368 OA
BRANCH   7   8
ATOM      8  C   LIG d   1      -6.159  73.333 116.382  0.00  0.00     0.119 C 
BRANCH   8   9
ATOM      9  C   LIG d   1      -6.624  72.343 117.466  0.00  0.00     0.028 C 
ATOM     10  C   LIG d   1      -7.269  71.080 116.870  0.00  0.00     0.006 C 
ENDBRANCH   8   9
BRANCH   8  11
ATOM     11  C   LIG d   1      -4.691  73.628 116.704  0.00  0.00     0.028 C 
ATOM     12  C   LIG d   1      -4.165  74.884 115.991  0.00  0.00     0.006 C 
ENDBRANCH   8  11
ENDBRANCH   7   8
ENDBRANCH   1   7
BRANCH   6  13
ATOM     13  N   LIG d   1      -6.076  75.684 119.134  0.00  0.00    -0.311 N 
ATOM     14  C   LIG d   1      -5.119  76.606 119.216  0.00  0.00     0.210 C 
ATOM     15  C   LIG d   1      -3.839  76.148 119.922  0.00  0.00     0.109 C 
ATOM     16  O   LIG d   1      -5.220  77.770 118.800  0.00  0.00    -0.276 OA
ATOM     17  H   LIG d   1      -5.922  74.776 119.527  0.00  0.00     0.149 HD
ENDBRANCH   6  13
BRANCH   5  18
ATOM     18  N   LIG d   1      -8.218  77.615 120.143  0.00  0.00     0.381 N 
ATOM     19  H   LIG d   1      -9.046  77.941 120.601  0.00  0.00    -0.090 HD
ATOM     20  H   LIG d   1      -7.954  78.292 119.449  0.00  0.00    -0.090 HD
ATOM     21  H   LIG d   1      -7.483  77.507 120.808  0.00  0.00    -0.090 HD
ENDBRANCH   5  18
BRANCH   3  22
ATOM     22  C   LIG d   1     -11.464  75.039 117.743  0.00  0.00     0.382 C 
ATOM     23  O   LIG d   1     -12.356  75.805 118.180  0.00  0.00    -0.241 OA
ATOM     24  O   LIG d   1     -11.789  73.983 117.168  0.00  0.00    -0.241 OA
ENDBRANCH   3  22
TORSDOF 7
ENDMDL
MODEL 4
REMARK VINA RESULT:      -4.8      2.833      3.740
REMARK  7 active torsions:
REMARK  status: ('A' for Active; 'I' for Inactive)
REMARK    1  A    between atoms: C_2  and  C_3 
REMARK    2  A    between atoms: C_3  and  O_6 
REMARK    3  A    between atoms: C_3  and  C_4 
REMARK    4  A    between atoms: C_7  and  O_6 
REMARK    5  A    between atoms: C_9  and  C_10 
REMARK    6  A    between atoms: N_15  and  C_14 
REMARK    7  A    between atoms: N_20  and  C_19 
REMARK       I    between atoms: C_22  and  N_20 
ROOT
ATOM      1  C   LIG d   1      -6.958  78.920 118.087  0.00  0.00     0.161 C 
ATOM      2  C   LIG d   1      -8.317  79.230 118.260  0.00  0.00     0.016 C 
ATOM      3  C   LIG d   1      -8.879  80.482 117.919  0.00  0.00     0.038 C 
ATOM      4  C   LIG d   1      -8.144  81.463 117.237  0.00  0.00     0.028 C 
ATOM      5  C   LIG d   1      -6.643  81.385 117.496  0.00  0.00    -0.047 C 
ATOM      6  C   LIG d   1      -6.164  79.938 117.242  0.00  0.00     0.091 C 
ENDROOT
BRANCH   1   7
ATOM      7  O   LIG d   1      -6.826  77.596 117.531  0.00  0.00    -0.368 OA
BRANCH   7   8
ATOM      8  C   LIG d   1      -7.820  76.628 117.948  0.00  0.00     0.119 C 
BRANCH   8   9
ATOM      9  C   LIG d   1      -7.213  75.811 119.105  0.00  0.00     0.028 C 
ATOM     10  C   LIG d   1      -5.781  75.338 118.802  0.00  0.00     0.006 C 
ENDBRANCH   8   9
BRANCH   8  11
ATOM     11  C   LIG d   1      -8.106  75.610 116.840  0.00  0.00     0.028 C 
ATOM     12  C   LIG d   1      -9.256  74.654 117.192  0.00  0.00     0.006 C 
ENDBRANCH   8  11
ENDBRANCH   7   8
ENDBRANCH   1   7
BRANCH   6  13
ATOM     13  N   LIG d   1      -4.723  79.755 117.554  0.00  0.00    -0.311 N 
ATOM     14  C   LIG d   1      -3.759  79.833 116.638  0.00  0.00     0.210 C 
ATOM     15  C   LIG d   1      -2.342  79.592 117.169  0.00  0.00     0.109 C 
ATOM     16  O   LIG d   1      -3.939  80.111 115.443  0.00  0.00    -0.276 OA
ATOM     17  H   LIG d   1      -4.484  79.556 118.506  0.00  0.00     0.149 HD
ENDBRANCH   6  13
BRANCH   5  18
ATOM     18  N   LIG d   1      -5.987  82.374 116.619  0.00  0.00     0.381 N 
ATOM     19  H   LIG d   1      -5.082  82.042 116.352  0.00  0.00    -0.090 HD
ATOM     20  H   LIG d   1      -5.871  83.233 117.127  0.00  0.00    -0.090 HD
ATOM     21  H   LIG d   1      -6.543  82.532 115.808  0.00  0.00    -0.090 HD
ENDBRANCH   5  18
BRANCH   3  22
ATOM     22  C   LIG d   1     -10.180  80.777 118.297  0.00  0.00     0.382 C 
ATOM     23  O   LIG d   1     -10.657  80.279 119.345  0.00  0.00    -0.241 OA
ATOM     24  O   LIG d   1     -10.897  81.501 117.580  0.00  0.00    -0.241 OA
ENDBRANCH   3  22
TORSDOF 7
ENDMDL
MODEL 5
REMARK VINA RESULT:      -4.7      2.366      4.501
REMARK  7 active torsions:
REMARK  status: ('A' for Active; 'I' for Inactive)
REMARK    1  A    between atoms: C_2  and  C_3 
REMARK    2  A    between atoms: C_3  and  O_6 
REMARK    3  A    between atoms: C_3  and  C_4 
REMARK    4  A    between atoms: C_7  and  O_6 
REMARK    5  A    between atoms: C_9  and  C_10 
REMARK    6  A    between atoms: N_15  and  C_14 
REMARK    7  A    between atoms: N_20  and  C_19 
REMARK       I    between atoms: C_22  and  N_20 
ROOT
ATOM      1  C   LIG d   1      -6.982  75.852 116.507  0.00  0.00     0.161 C 
ATOM      2  C   LIG d   1      -8.313  75.501 116.790  0.00  0.00     0.016 C 
ATOM      3  C   LIG d   1      -8.723  74.181 117.089  0.00  0.00     0.038 C 
ATOM      4  C   LIG d   1      -7.800  73.142 117.275  0.00  0.00     0.028 C 
ATOM      5  C   LIG d   1      -6.499  73.343 116.505  0.00  0.00    -0.047 C 
ATOM      6  C   LIG d   1      -5.945  74.752 116.815  0.00  0.00     0.091 C 
ENDROOT
BRANCH   1   7
ATOM      7  O   LIG d   1      -6.641  77.070 117.197  0.00  0.00    -0.368 OA
BRANCH   7   8
ATOM      8  C   LIG d   1      -7.449  77.394 118.356  0.00  0.00     0.119 C 
BRANCH   8   9
ATOM      9  C   LIG d   1      -7.805  78.890 118.268  0.00  0.00     0.028 C 
ATOM     10  C   LIG d   1      -9.320  79.140 118.368  0.00  0.00     0.006 C 
ENDBRANCH   8   9
BRANCH   8  11
ATOM     11  C   LIG d   1      -6.648  77.243 119.653  0.00  0.00     0.028 C 
ATOM     12  C   LIG d   1      -6.800  75.852 120.289  0.00  0.00     0.006 C 
ENDBRANCH   8  11
ENDBRANCH   7   8
ENDBRANCH   1   7
BRANCH   6  13
ATOM     13  N   LIG d   1      -4.717  75.062 116.037  0.00  0.00    -0.311 N 
ATOM     14  C   LIG d   1      -3.485  74.824 116.485  0.00  0.00     0.210 C 
ATOM     15  C   LIG d   1      -2.359  75.237 115.532  0.00  0.00     0.109 C 
ATOM     16  O   LIG d   1      -3.219  74.280 117.567  0.00  0.00    -0.276 OA
ATOM     17  H   LIG d   1      -4.841  75.476 115.134  0.00  0.00     0.149 HD
ENDBRANCH   6  13
BRANCH   5  18
ATOM     18  N   LIG d   1      -5.577  72.260 116.898  0.00  0.00     0.381 N 
ATOM     19  H   LIG d   1      -4.661  72.633 117.049  0.00  0.00    -0.090 HD
ATOM     20  H   LIG d   1      -5.526  71.590 116.151  0.00  0.00    -0.090 HD
ATOM     21  H   LIG d   1      -5.905  71.818 117.729  0.00  0.00    -0.090 HD
ENDBRANCH   5  18
BRANCH   3  22
ATOM     22  C   LIG d   1     -10.075  73.883 117.165  0.00  0.00     0.382 C 
ATOM     23  O   LIG d   1     -10.883  74.739 117.600  0.00  0.00    -0.241 OA
ATOM     24  O   LIG d   1     -10.492  72.753 116.846  0.00  0.00    -0.241 OA
ENDBRANCH   3  22
TORSDOF 7
ENDMDL
MODEL 6
REMARK VINA RESULT:      -4.7      2.396      3.283
REMARK  7 active torsions:
REMARK  status: ('A' for Active; 'I' for Inactive)
REMARK    1  A    between atoms: C_2  and  C_3 
REMARK    2  A    between atoms: C_3  and  O_6 
REMARK    3  A    between atoms: C_3  and  C_4 
REMARK    4  A    between atoms: C_7  and  O_6 
REMARK    5  A    between atoms: C_9  and  C_10 
REMARK    6  A    between atoms: N_15  and  C_14 
REMARK    7  A    between atoms: N_20  and  C_19 
REMARK       I    between atoms: C_22  and  N_20 
ROOT
ATOM      1  C   LIG d   1      -7.070  78.054 117.969  0.00  0.00     0.161 C 
ATOM      2  C   LIG d   1      -8.190  77.238 118.196  0.00  0.00     0.016 C 
ATOM      3  C   LIG d   1      -9.479  77.746 118.480  0.00  0.00     0.038 C 
ATOM      4  C   LIG d   1      -9.768  79.117 118.406  0.00  0.00     0.028 C 
ATOM      5  C   LIG d   1      -8.559  80.006 118.676  0.00  0.00    -0.047 C 
ATOM      6  C   LIG d   1      -7.389  79.551 117.774  0.00  0.00     0.091 C 
ENDROOT
BRANCH   1   7
ATOM      7  O   LIG d   1      -6.319  77.552 116.845  0.00  0.00    -0.368 OA
BRANCH   7   8
ATOM      8  C   LIG d   1      -6.111  76.119 116.808  0.00  0.00     0.119 C 
BRANCH   8   9
ATOM      9  C   LIG d   1      -4.589  75.872 116.812  0.00  0.00     0.028 C 
ATOM     10  C   LIG d   1      -4.115  75.149 118.084  0.00  0.00     0.006 C 
ENDBRANCH   8   9
BRANCH   8  11
ATOM     11  C   LIG d   1      -6.615  75.516 115.493  0.00  0.00     0.028 C 
ATOM     12  C   LIG d   1      -5.475  75.045 114.577  0.00  0.00     0.006 C 
ENDBRANCH   8  11
ENDBRANCH   7   8
ENDBRANCH   1   7
BRANCH   6  13
ATOM     13  N   LIG d   1      -6.141  80.315 118.036  0.00  0.00    -0.311 N 
ATOM     14  C   LIG d   1      -5.789  81.401 117.350  0.00  0.00     0.210 C 
ATOM     15  C   LIG d   1      -4.454  82.025 117.767  0.00  0.00     0.109 C 
ATOM     16  O   LIG d   1      -6.471  81.925 116.456  0.00  0.00    -0.276 OA
ATOM     17  H   LIG d   1      -5.544  79.977 118.765  0.00  0.00     0.149 HD
ENDBRANCH   6  13
BRANCH   5  18
ATOM     18  N   LIG d   1      -8.969  81.402 118.432  0.00  0.00     0.381 N 
ATOM     19  H   LIG d   1      -8.319  81.842 117.812  0.00  0.00    -0.090 HD
ATOM     20  H   LIG d   1      -8.960  81.901 119.304  0.00  0.00    -0.090 HD
ATOM     21  H   LIG d   1      -9.883  81.425 118.037  0.00  0.00    -0.090 HD
ENDBRANCH   5  18
BRANCH   3  22
ATOM     22  C   LIG d   1     -10.486  76.882 118.881  0.00  0.00     0.382 C 
ATOM     23  O   LIG d   1     -11.616  77.333 119.185  0.00  0.00    -0.241 OA
ATOM     24  O   LIG d   1     -10.265  75.660 118.987  0.00  0.00    -0.241 OA
ENDBRANCH   3  22
TORSDOF 7
ENDMDL
MODEL 7
REMARK VINA RESULT:      -4.5     13.054     15.810
REMARK  7 active torsions:
REMARK  status: ('A' for Active; 'I' for Inactive)
REMARK    1  A    between atoms: C_2  and  C_3 
REMARK    2  A    between atoms: C_3  and  O_6 
REMARK    3  A    between atoms: C_3  and  C_4 
REMARK    4  A    between atoms: C_7  and  O_6 
REMARK    5  A    between atoms: C_9  and  C_10 
REMARK    6  A    between atoms: N_15  and  C_14 
REMARK    7  A    between atoms: N_20  and  C_19 
REMARK       I    between atoms: C_22  and  N_20 
ROOT
ATOM      1  C   LIG d   1     -16.646  64.209 115.706  0.00  0.00     0.161 C 
ATOM      2  C   LIG d   1     -17.706  64.474 114.823  0.00  0.00     0.016 C 
ATOM      3  C   LIG d   1     -18.954  63.812 114.883  0.00  0.00     0.038 C 
ATOM      4  C   LIG d   1     -19.281  62.942 115.933  0.00  0.00     0.028 C 
ATOM      5  C   LIG d   1     -18.067  62.263 116.559  0.00  0.00    -0.047 C 
ATOM      6  C   LIG d   1     -17.023  63.343 116.926  0.00  0.00     0.091 C 
ENDROOT
BRANCH   1   7
ATOM      7  O   LIG d   1     -16.047  65.447 116.136  0.00  0.00    -0.368 OA
BRANCH   7   8
ATOM      8  C   LIG d   1     -16.865  66.289 116.985  0.00  0.00     0.119 C 
BRANCH   8   9
ATOM      9  C   LIG d   1     -16.943  67.678 116.321  0.00  0.00     0.028 C 
ATOM     10  C   LIG d   1     -15.966  67.821 115.142  0.00  0.00     0.006 C 
ENDBRANCH   8   9
BRANCH   8  11
ATOM     11  C   LIG d   1     -16.198  66.526 118.343  0.00  0.00     0.028 C 
ATOM     12  C   LIG d   1     -14.706  66.158 118.347  0.00  0.00     0.006 C 
ENDBRANCH   8  11
ENDBRANCH   7   8
ENDBRANCH   1   7
BRANCH   6  13
ATOM     13  N   LIG d   1     -15.769  62.757 117.467  0.00  0.00    -0.311 N 
ATOM     14  C   LIG d   1     -15.538  62.592 118.769  0.00  0.00     0.210 C 
ATOM     15  C   LIG d   1     -14.173  61.989 119.112  0.00  0.00     0.109 C 
ATOM     16  O   LIG d   1     -16.348  62.858 119.669  0.00  0.00    -0.276 OA
ATOM     17  H   LIG d   1     -15.070  62.485 116.804  0.00  0.00     0.149 HD
ENDBRANCH   6  13
BRANCH   5  18
ATOM     18  N   LIG d   1     -18.538  61.494 117.725  0.00  0.00     0.381 N 
ATOM     19  H   LIG d   1     -18.660  62.105 118.508  0.00  0.00    -0.090 HD
ATOM     20  H   LIG d   1     -17.843  60.809 117.965  0.00  0.00    -0.090 HD
ATOM     21  H   LIG d   1     -19.400  61.042 117.511  0.00  0.00    -0.090 HD
ENDBRANCH   5  18
BRANCH   3  22
ATOM     22  C   LIG d   1     -19.875  63.989 113.862  0.00  0.00     0.382 C 
ATOM     23  O   LIG d   1     -20.105  63.055 113.056  0.00  0.00    -0.241 OA
ATOM     24  O   LIG d   1     -20.447  65.085 113.710  0.00  0.00    -0.241 OA
ENDBRANCH   3  22
TORSDOF 7
ENDMDL
MODEL 8
REMARK VINA RESULT:      -4.4     13.251     15.864
REMARK  7 active torsions:
REMARK  status: ('A' for Active; 'I' for Inactive)
REMARK    1  A    between atoms: C_2  and  C_3 
REMARK    2  A    between atoms: C_3  and  O_6 
REMARK    3  A    between atoms: C_3  and  C_4 
REMARK    4  A    between atoms: C_7  and  O_6 
REMARK    5  A    between atoms: C_9  and  C_10 
REMARK    6  A    between atoms: N_15  and  C_14 
REMARK    7  A    between atoms: N_20  and  C_19 
REMARK       I    between atoms: C_22  and  N_20 
ROOT
ATOM      1  C   LIG d   1     -17.351  63.785 116.527  0.00  0.00     0.161 C 
ATOM      2  C   LIG d   1     -17.784  62.455 116.402  0.00  0.00     0.016 C 
ATOM      3  C   LIG d   1     -18.535  61.981 115.301  0.00  0.00     0.038 C 
ATOM      4  C   LIG d   1     -18.777  62.777 114.171  0.00  0.00     0.028 C 
ATOM      5  C   LIG d   1     -18.794  64.271 114.475  0.00  0.00    -0.047 C 
ATOM      6  C   LIG d   1     -17.510  64.640 115.252  0.00  0.00     0.091 C 
ENDROOT
BRANCH   1   7
ATOM      7  O   LIG d   1     -15.984  63.814 116.982  0.00  0.00    -0.368 OA
BRANCH   7   8
ATOM      8  C   LIG d   1     -15.777  64.242 118.351  0.00  0.00     0.119 C 
BRANCH   8   9
ATOM      9  C   LIG d   1     -14.999  65.572 118.307  0.00  0.00     0.028 C 
ATOM     10  C   LIG d   1     -15.557  66.611 119.294  0.00  0.00     0.006 C 
ENDBRANCH   8   9
BRANCH   8  11
ATOM     11  C   LIG d   1     -14.871  63.267 119.109  0.00  0.00     0.028 C 
ATOM     12  C   LIG d   1     -15.451  61.846 119.179  0.00  0.00     0.006 C 
ENDBRANCH   8  11
ENDBRANCH   7   8
ENDBRANCH   1   7
BRANCH   6  13
ATOM     13  N   LIG d   1     -17.487  66.068 115.663  0.00  0.00    -0.311 N 
ATOM     14  C   LIG d   1     -16.483  66.896 115.379  0.00  0.00     0.210 C 
ATOM     15  C   LIG d   1     -16.650  68.322 115.913  0.00  0.00     0.109 C 
ATOM     16  O   LIG d   1     -15.484  66.593 114.709  0.00  0.00    -0.276 OA
ATOM     17  H   LIG d   1     -18.272  66.406 116.184  0.00  0.00     0.149 HD
ENDBRANCH   6  13
BRANCH   5  18
ATOM     18  N   LIG d   1     -18.918  64.985 113.190  0.00  0.00     0.381 N 
ATOM     19  H   LIG d   1     -18.511  65.896 113.269  0.00  0.00    -0.090 HD
ATOM     20  H   LIG d   1     -19.893  65.093 112.971  0.00  0.00    -0.090 HD
ATOM     21  H   LIG d   1     -18.463  64.471 112.469  0.00  0.00    -0.090 HD
ENDBRANCH   5  18
BRANCH   3  22
ATOM     22  C   LIG d   1     -19.087  60.710 115.342  0.00  0.00     0.382 C 
ATOM     23  O   LIG d   1     -19.522  60.181 114.291  0.00  0.00    -0.241 OA
ATOM     24  O   LIG d   1     -19.196  60.103 116.425  0.00  0.00    -0.241 OA
ENDBRANCH   3  22
TORSDOF 7
ENDMDL
MODEL 9
REMARK VINA RESULT:      -4.4     16.722     18.723
REMARK  7 active torsions:
REMARK  status: ('A' for Active; 'I' for Inactive)
REMARK    1  A    between atoms: C_2  and  C_3 
REMARK    2  A    between atoms: C_3  and  O_6 
REMARK    3  A    between atoms: C_3  and  C_4 
REMARK    4  A    between atoms: C_7  and  O_6 
REMARK    5  A    between atoms: C_9  and  C_10 
REMARK    6  A    between atoms: N_15  and  C_14 
REMARK    7  A    between atoms: N_20  and  C_19 
REMARK       I    between atoms: C_22  and  N_20 
ROOT
ATOM      1  C   LIG d   1       2.538  90.369 117.199  0.00  0.00     0.161 C 
ATOM      2  C   LIG d   1       2.042  89.678 116.081  0.00  0.00     0.016 C 
ATOM      3  C   LIG d   1       2.860  89.224 115.020  0.00  0.00     0.038 C 
ATOM      4  C   LIG d   1       4.260  89.300 115.079  0.00  0.00     0.028 C 
ATOM      5  C   LIG d   1       4.769  90.440 115.954  0.00  0.00    -0.047 C 
ATOM      6  C   LIG d   1       4.075  90.362 117.333  0.00  0.00     0.091 C 
ENDROOT
BRANCH   1   7
ATOM      7  O   LIG d   1       1.928  89.857 118.400  0.00  0.00    -0.368 OA
BRANCH   7   8
ATOM      8  C   LIG d   1       0.933  90.708 119.022  0.00  0.00     0.119 C 
BRANCH   8   9
ATOM      9  C   LIG d   1      -0.404  89.941 119.011  0.00  0.00     0.028 C 
ATOM     10  C   LIG d   1      -1.312  90.363 117.844  0.00  0.00     0.006 C 
ENDBRANCH   8   9
BRANCH   8  11
ATOM     11  C   LIG d   1       0.684  91.971 118.192  0.00  0.00     0.028 C 
ATOM     12  C   LIG d   1       0.734  93.256 119.034  0.00  0.00     0.006 C 
ENDBRANCH   8  11
ENDBRANCH   7   8
ENDBRANCH   1   7
BRANCH   6  13
ATOM     13  N   LIG d   1       4.454  91.491 118.223  0.00  0.00    -0.311 N 
ATOM     14  C   LIG d   1       4.263  92.770 117.905  0.00  0.00     0.210 C 
ATOM     15  C   LIG d   1       4.744  93.776 118.955  0.00  0.00     0.109 C 
ATOM     16  O   LIG d   1       3.713  93.167 116.866  0.00  0.00    -0.276 OA
ATOM     17  H   LIG d   1       4.878  91.259 119.099  0.00  0.00     0.149 HD
ENDBRANCH   6  13
BRANCH   5  18
ATOM     18  N   LIG d   1       6.236  90.317 116.037  0.00  0.00     0.381 N 
ATOM     19  H   LIG d   1       6.668  91.069 115.538  0.00  0.00    -0.090 HD
ATOM     20  H   LIG d   1       6.515  89.453 115.608  0.00  0.00    -0.090 HD
ATOM     21  H   LIG d   1       6.527  90.332 116.990  0.00  0.00    -0.090 HD
ENDBRANCH   5  18
BRANCH   3  22
ATOM     22  C   LIG d   1       2.276  88.724 113.867  0.00  0.00     0.382 C 
ATOM     23  O   LIG d   1       2.961  88.056 113.055  0.00  0.00    -0.241 OA
ATOM     24  O   LIG d   1       1.083  88.970 113.605  0.00  0.00    -0.241 OA
ENDBRANCH   3  22
TORSDOF 7
ENDMDL
