MODEL 1
REMARK VINA RESULT:      -5.3      0.000      0.000
REMARK  7 active torsions:
REMARK  status: ('A' for Active; 'I' for Inactive)
REMARK    1  A    between atoms: C_2  and  C_3 
REMARK    2  A    between atoms: C_3  and  O_6 
REMARK    3  A    between atoms: C_3  and  C_4 
REMARK    4  A    between atoms: C_7  and  O_6 
REMARK    5  A    between atoms: C_9  and  C_10 
REMARK    6  A    between atoms: N_15  and  C_14 
REMARK    7  A    between atoms: N_20  and  C_19 
REMARK       I    between atoms: C_22  and  N_20 
ROOT
ATOM      1  C   LIG d   1      -2.477  74.814 116.566  0.00  0.00     0.161 C 
ATOM      2  C   LIG d   1      -3.023  75.509 117.658  0.00  0.00     0.016 C 
ATOM      3  C   LIG d   1      -2.282  76.409 118.458  0.00  0.00     0.038 C 
ATOM      4  C   LIG d   1      -0.974  76.792 118.125  0.00  0.00     0.028 C 
ATOM      5  C   LIG d   1      -0.218  75.735 117.327  0.00  0.00    -0.047 C 
ATOM      6  C   LIG d   1      -1.083  75.303 116.120  0.00  0.00     0.091 C 
ENDROOT
BRANCH   1   7
ATOM      7  O   LIG d   1      -3.397  74.845 115.457  0.00  0.00    -0.368 OA
BRANCH   7   8
ATOM      8  C   LIG d   1      -4.804  74.905 115.798  0.00  0.00     0.119 C 
BRANCH   8   9
ATOM      9  C   LIG d   1      -5.417  73.528 115.478  0.00  0.00     0.028 C 
ATOM     10  C   LIG d   1      -5.787  72.742 116.747  0.00  0.00     0.006 C 
ENDBRANCH   8   9
BRANCH   8  11
ATOM     11  C   LIG d   1      -5.552  75.899 114.904  0.00  0.00     0.028 C 
ATOM     12  C   LIG d   1      -6.942  76.262 115.450  0.00  0.00     0.006 C 
ENDBRANCH   8  11
ENDBRANCH   7   8
ENDBRANCH   1   7
BRANCH   6  13
ATOM     13  N   LIG d   1      -0.454  74.210 115.334  0.00  0.00    -0.311 N 
ATOM     14  C   LIG d   1      -0.142  74.322 114.044  0.00  0.00     0.210 C 
ATOM     15  C   LIG d   1       0.481  73.070 113.419  0.00  0.00     0.109 C 
ATOM     16  O   LIG d   1      -0.292  75.350 113.366  0.00  0.00    -0.276 OA
ATOM     17  H   LIG d   1      -0.268  73.352 115.814  0.00  0.00     0.149 HD
ENDBRANCH   6  13
BRANCH   5  18
ATOM     18  N   LIG d   1       1.077  76.318 116.930  0.00  0.00     0.381 N 
ATOM     19  H   LIG d   1       0.989  76.764 116.039  0.00  0.00    -0.090 HD
ATOM     20  H   LIG d   1       1.755  75.580 116.847  0.00  0.00    -0.090 HD
ATOM     21  H   LIG d   1       1.377  76.979 117.612  0.00  0.00    -0.090 HD
ENDBRANCH   5  18
BRANCH   3  22
ATOM     22  C   LIG d   1      -2.836  76.905 119.628  0.00  0.00     0.382 C 
ATOM     23  O   LIG d   1      -4.052  77.211 119.665  0.00  0.00    -0.241 OA
ATOM     24  O   LIG d   1      -2.125  77.093 120.633  0.00  0.00    -0.241 OA
ENDBRANCH   3  22
TORSDOF 7
ENDMDL
MODEL 2
REMARK VINA RESULT:      -5.2      4.825      6.421
REMARK  7 active torsions:
REMARK  status: ('A' for Active; 'I' for Inactive)
REMARK    1  A    between atoms: C_2  and  C_3 
REMARK    2  A    between atoms: C_3  and  O_6 
REMARK    3  A    between atoms: C_3  and  C_4 
REMARK    4  A    between atoms: C_7  and  O_6 
REMARK    5  A    between atoms: C_9  and  C_10 
REMARK    6  A    between atoms: N_15  and  C_14 
REMARK    7  A    between atoms: N_20  and  C_19 
REMARK       I    between atoms: C_22  and  N_20 
ROOT
ATOM      1  C   LIG d   1      -6.033  78.777 117.496  0.00  0.00     0.161 C 
ATOM      2  C   LIG d   1      -7.407  78.575 117.707  0.00  0.00     0.016 C 
ATOM      3  C   LIG d   1      -8.314  79.623 117.985  0.00  0.00     0.038 C 
ATOM      4  C   LIG d   1      -7.931  80.971 117.921  0.00  0.00     0.028 C 
ATOM      5  C   LIG d   1      -6.451  81.194 118.210  0.00  0.00    -0.047 C 
ATOM      6  C   LIG d   1      -5.617  80.251 117.313  0.00  0.00     0.091 C 
ENDROOT
BRANCH   1   7
ATOM      7  O   LIG d   1      -5.589  77.988 116.374  0.00  0.00    -0.368 OA
BRANCH   7   8
ATOM      8  C   LIG d   1      -5.848  76.565 116.454  0.00  0.00     0.119 C 
BRANCH   8   9
ATOM      9  C   LIG d   1      -4.484  75.849 116.514  0.00  0.00     0.028 C 
ATOM     10  C   LIG d   1      -4.490  74.656 117.485  0.00  0.00     0.006 C 
ENDBRANCH   8   9
BRANCH   8  11
ATOM     11  C   LIG d   1      -6.521  76.048 115.179  0.00  0.00     0.028 C 
ATOM     12  C   LIG d   1      -5.523  75.802 114.036  0.00  0.00     0.006 C 
ENDBRANCH   8  11
ENDBRANCH   7   8
ENDBRANCH   1   7
BRANCH   6  13
ATOM     13  N   LIG d   1      -4.160  80.345 117.592  0.00  0.00    -0.311 N 
ATOM     14  C   LIG d   1      -3.250  80.608 116.655  0.00  0.00     0.210 C 
ATOM     15  C   LIG d   1      -1.801  80.640 117.152  0.00  0.00     0.109 C 
ATOM     16  O   LIG d   1      -3.507  80.849 115.466  0.00  0.00    -0.276 OA
ATOM     17  H   LIG d   1      -3.865  80.194 118.537  0.00  0.00     0.149 HD
ENDBRANCH   6  13
BRANCH   5  18
ATOM     18  N   LIG d   1      -6.161  82.622 117.975  0.00  0.00     0.381 N 
ATOM     19  H   LIG d   1      -5.622  82.725 117.138  0.00  0.00    -0.090 HD
ATOM     20  H   LIG d   1      -5.620  82.975 118.744  0.00  0.00    -0.090 HD
ATOM     21  H   LIG d   1      -7.012  83.134 117.895  0.00  0.00    -0.090 HD
ENDBRANCH   5  18
BRANCH   3  22
ATOM     22  C   LIG d   1      -9.612  79.324 118.370  0.00  0.00     0.382 C 
ATOM     23  O   LIG d   1     -10.292  80.174 118.994  0.00  0.00    -0.241 OA
ATOM     24  O   LIG d   1     -10.096  78.200 118.141  0.00  0.00    -0.241 OA
ENDBRANCH   3  22
TORSDOF 7
ENDMDL
MODEL 3
REMARK VINA RESULT:      -5.0      2.364      3.858
REMARK  7 active torsions:
REMARK  status: ('A' for Active; 'I' for Inactive)
REMARK    1  A    between atoms: C_2  and  C_3 
REMARK    2  A    between atoms: C_3  and  O_6 
REMARK    3  A    between atoms: C_3  and  C_4 
REMARK    4  A    between atoms: C_7  and  O_6 
REMARK    5  A    between atoms: C_9  and  C_10 
REMARK    6  A    between atoms: N_15  and  C_14 
REMARK    7  A    between atoms: N_20  and  C_19 
REMARK       I    between atoms: C_22  and  N_20 
ROOT
ATOM      1  C   LIG d   1      -2.493  76.007 116.948  0.00  0.00     0.161 C 
ATOM      2  C   LIG d   1      -2.698  77.155 116.165  0.00  0.00     0.016 C 
ATOM      3  C   LIG d   1      -2.035  77.388 114.938  0.00  0.00     0.038 C 
ATOM      4  C   LIG d   1      -1.229  76.412 114.333  0.00  0.00     0.028 C 
ATOM      5  C   LIG d   1      -0.597  75.446 115.329  0.00  0.00    -0.047 C 
ATOM      6  C   LIG d   1      -1.702  74.880 116.250  0.00  0.00     0.091 C 
ENDROOT
BRANCH   1   7
ATOM      7  O   LIG d   1      -3.758  75.509 117.426  0.00  0.00    -0.368 OA
BRANCH   7   8
ATOM      8  C   LIG d   1      -4.398  74.502 116.604  0.00  0.00     0.119 C 
BRANCH   8   9
ATOM      9  C   LIG d   1      -5.604  75.166 115.913  0.00  0.00     0.028 C 
ATOM     10  C   LIG d   1      -5.401  75.317 114.396  0.00  0.00     0.006 C 
ENDBRANCH   8   9
BRANCH   8  11
ATOM     11  C   LIG d   1      -4.989  73.378 117.460  0.00  0.00     0.028 C 
ATOM     12  C   LIG d   1      -5.999  72.511 116.691  0.00  0.00     0.006 C 
ENDBRANCH   8  11
ENDBRANCH   7   8
ENDBRANCH   1   7
BRANCH   6  13
ATOM     13  N   LIG d   1      -1.157  73.991 117.309  0.00  0.00    -0.311 N 
ATOM     14  C   LIG d   1      -0.289  74.398 118.233  0.00  0.00     0.210 C 
ATOM     15  C   LIG d   1       0.161  73.315 119.219  0.00  0.00     0.109 C 
ATOM     16  O   LIG d   1       0.126  75.560 118.350  0.00  0.00    -0.276 OA
ATOM     17  H   LIG d   1      -1.465  73.038 117.307  0.00  0.00     0.149 HD
ENDBRANCH   6  13
BRANCH   5  18
ATOM     18  N   LIG d   1       0.102  74.402 114.556  0.00  0.00     0.381 N 
ATOM     19  H   LIG d   1       0.174  73.567 115.102  0.00  0.00    -0.090 HD
ATOM     20  H   LIG d   1       1.030  74.721 114.343  0.00  0.00    -0.090 HD
ATOM     21  H   LIG d   1      -0.394  74.213 113.712  0.00  0.00    -0.090 HD
ENDBRANCH   5  18
BRANCH   3  22
ATOM     22  C   LIG d   1      -2.144  78.626 114.323  0.00  0.00     0.382 C 
ATOM     23  O   LIG d   1      -3.118  78.869 113.571  0.00  0.00    -0.241 OA
ATOM     24  O   LIG d   1      -1.257  79.487 114.475  0.00  0.00    -0.241 OA
ENDBRANCH   3  22
TORSDOF 7
ENDMDL
MODEL 4
REMARK VINA RESULT:      -4.7     25.364     27.278
REMARK  7 active torsions:
REMARK  status: ('A' for Active; 'I' for Inactive)
REMARK    1  A    between atoms: C_2  and  C_3 
REMARK    2  A    between atoms: C_3  and  O_6 
REMARK    3  A    between atoms: C_3  and  C_4 
REMARK    4  A    between atoms: C_7  and  O_6 
REMARK    5  A    between atoms: C_9  and  C_10 
REMARK    6  A    between atoms: N_15  and  C_14 
REMARK    7  A    between atoms: N_20  and  C_19 
REMARK       I    between atoms: C_22  and  N_20 
ROOT
ATOM      1  C   LIG d   1     -17.417  96.937 117.615  0.00  0.00     0.161 C 
ATOM      2  C   LIG d   1     -16.499  97.762 116.944  0.00  0.00     0.016 C 
ATOM      3  C   LIG d   1     -16.861  98.638 115.895  0.00  0.00     0.038 C 
ATOM      4  C   LIG d   1     -18.202  98.860 115.544  0.00  0.00     0.028 C 
ATOM      5  C   LIG d   1     -19.113  97.677 115.852  0.00  0.00    -0.047 C 
ATOM      6  C   LIG d   1     -18.900  97.248 117.322  0.00  0.00     0.091 C 
ENDROOT
BRANCH   1   7
ATOM      7  O   LIG d   1     -17.167  96.980 119.033  0.00  0.00    -0.368 OA
BRANCH   7   8
ATOM      8  C   LIG d   1     -16.636  95.769 119.624  0.00  0.00     0.119 C 
BRANCH   8   9
ATOM      9  C   LIG d   1     -17.623  95.317 120.719  0.00  0.00     0.028 C 
ATOM     10  C   LIG d   1     -18.336  94.002 120.359  0.00  0.00     0.006 C 
ENDBRANCH   8   9
BRANCH   8  11
ATOM     11  C   LIG d   1     -15.316  96.037 120.354  0.00  0.00     0.028 C 
ATOM     12  C   LIG d   1     -15.088  97.529 120.643  0.00  0.00     0.006 C 
ENDBRANCH   8  11
ENDBRANCH   7   8
ENDBRANCH   1   7
BRANCH   6  13
ATOM     13  N   LIG d   1     -19.692  96.043 117.681  0.00  0.00    -0.311 N 
ATOM     14  C   LIG d   1     -20.884  96.098 118.273  0.00  0.00     0.210 C 
ATOM     15  C   LIG d   1     -21.520  94.738 118.573  0.00  0.00     0.109 C 
ATOM     16  O   LIG d   1     -21.489  97.145 118.548  0.00  0.00    -0.276 OA
ATOM     17  H   LIG d   1     -19.290  95.152 117.465  0.00  0.00     0.149 HD
ENDBRANCH   6  13
BRANCH   5  18
ATOM     18  N   LIG d   1     -20.498  98.095 115.566  0.00  0.00     0.381 N 
ATOM     19  H   LIG d   1     -20.977  97.367 115.075  0.00  0.00    -0.090 HD
ATOM     20  H   LIG d   1     -20.477  98.910 114.979  0.00  0.00    -0.090 HD
ATOM     21  H   LIG d   1     -20.974  98.301 116.417  0.00  0.00    -0.090 HD
ENDBRANCH   5  18
BRANCH   3  22
ATOM     22  C   LIG d   1     -15.874  99.272 115.157  0.00  0.00     0.382 C 
ATOM     23  O   LIG d   1     -14.740  99.463 115.660  0.00  0.00    -0.241 OA
ATOM     24  O   LIG d   1     -16.115  99.695 114.010  0.00  0.00    -0.241 OA
ENDBRANCH   3  22
TORSDOF 7
ENDMDL
MODEL 5
REMARK VINA RESULT:      -4.7      3.135      5.687
REMARK  7 active torsions:
REMARK  status: ('A' for Active; 'I' for Inactive)
REMARK    1  A    between atoms: C_2  and  C_3 
REMARK    2  A    between atoms: C_3  and  O_6 
REMARK    3  A    between atoms: C_3  and  C_4 
REMARK    4  A    between atoms: C_7  and  O_6 
REMARK    5  A    between atoms: C_9  and  C_10 
REMARK    6  A    between atoms: N_15  and  C_14 
REMARK    7  A    between atoms: N_20  and  C_19 
REMARK       I    between atoms: C_22  and  N_20 
ROOT
ATOM      1  C   LIG d   1      -0.799  77.246 115.916  0.00  0.00     0.161 C 
ATOM      2  C   LIG d   1      -2.114  77.111 115.441  0.00  0.00     0.016 C 
ATOM      3  C   LIG d   1      -2.900  75.953 115.647  0.00  0.00     0.038 C 
ATOM      4  C   LIG d   1      -2.474  74.906 116.478  0.00  0.00     0.028 C 
ATOM      5  C   LIG d   1      -0.957  74.779 116.563  0.00  0.00    -0.047 C 
ATOM      6  C   LIG d   1      -0.358  76.159 116.918  0.00  0.00     0.091 C 
ENDROOT
BRANCH   1   7
ATOM      7  O   LIG d   1      -0.619  78.557 116.487  0.00  0.00    -0.368 OA
BRANCH   7   8
ATOM      8  C   LIG d   1       0.261  79.452 115.763  0.00  0.00     0.119 C 
BRANCH   8   9
ATOM      9  C   LIG d   1       1.183  80.131 116.795  0.00  0.00     0.028 C 
ATOM     10  C   LIG d   1       2.668  80.037 116.407  0.00  0.00     0.006 C 
ENDBRANCH   8   9
BRANCH   8  11
ATOM     11  C   LIG d   1      -0.521  80.593 115.107  0.00  0.00     0.028 C 
ATOM     12  C   LIG d   1      -0.687  80.407 113.590  0.00  0.00     0.006 C 
ENDBRANCH   8  11
ENDBRANCH   7   8
ENDBRANCH   1   7
BRANCH   6  13
ATOM     13  N   LIG d   1       1.128  76.144 116.939  0.00  0.00    -0.311 N 
ATOM     14  C   LIG d   1       1.852  76.610 117.955  0.00  0.00     0.210 C 
ATOM     15  C   LIG d   1       3.370  76.517 117.764  0.00  0.00     0.109 C 
ATOM     16  O   LIG d   1       1.382  77.063 119.009  0.00  0.00    -0.276 OA
ATOM     17  H   LIG d   1       1.592  75.765 116.136  0.00  0.00     0.149 HD
ENDBRANCH   6  13
BRANCH   5  18
ATOM     18  N   LIG d   1      -0.652  73.741 117.565  0.00  0.00     0.381 N 
ATOM     19  H   LIG d   1      -1.310  73.792 118.317  0.00  0.00    -0.090 HD
ATOM     20  H   LIG d   1       0.266  73.909 117.938  0.00  0.00    -0.090 HD
ATOM     21  H   LIG d   1      -0.687  72.839 117.144  0.00  0.00    -0.090 HD
ENDBRANCH   5  18
BRANCH   3  22
ATOM     22  C   LIG d   1      -4.112  75.819 114.986  0.00  0.00     0.382 C 
ATOM     23  O   LIG d   1      -4.508  74.683 114.629  0.00  0.00    -0.241 OA
ATOM     24  O   LIG d   1      -4.792  76.823 114.704  0.00  0.00    -0.241 OA
ENDBRANCH   3  22
TORSDOF 7
ENDMDL
MODEL 6
REMARK VINA RESULT:      -4.6      2.631      5.083
REMARK  7 active torsions:
REMARK  status: ('A' for Active; 'I' for Inactive)
REMARK    1  A    between atoms: C_2  and  C_3 
REMARK    2  A    between atoms: C_3  and  O_6 
REMARK    3  A    between atoms: C_3  and  C_4 
REMARK    4  A    between atoms: C_7  and  O_6 
REMARK    5  A    between atoms: C_9  and  C_10 
REMARK    6  A    between atoms: N_15  and  C_14 
REMARK    7  A    between atoms: N_20  and  C_19 
REMARK       I    between atoms: C_22  and  N_20 
ROOT
ATOM      1  C   LIG d   1      -0.983  77.225 115.932  0.00  0.00     0.161 C 
ATOM      2  C   LIG d   1      -2.302  77.065 115.475  0.00  0.00     0.016 C 
ATOM      3  C   LIG d   1      -3.059  75.889 115.679  0.00  0.00     0.038 C 
ATOM      4  C   LIG d   1      -2.597  74.842 116.491  0.00  0.00     0.028 C 
ATOM      5  C   LIG d   1      -1.076  74.748 116.552  0.00  0.00    -0.047 C 
ATOM      6  C   LIG d   1      -0.503  76.137 116.914  0.00  0.00     0.091 C 
ENDROOT
BRANCH   1   7
ATOM      7  O   LIG d   1      -0.823  78.533 116.515  0.00  0.00    -0.368 OA
BRANCH   7   8
ATOM      8  C   LIG d   1      -2.001  79.101 117.139  0.00  0.00     0.119 C 
BRANCH   8   9
ATOM      9  C   LIG d   1      -2.059  80.591 116.749  0.00  0.00     0.028 C 
ATOM     10  C   LIG d   1      -2.669  80.810 115.355  0.00  0.00     0.006 C 
ENDBRANCH   8   9
BRANCH   8  11
ATOM     11  C   LIG d   1      -1.886  79.086 118.666  0.00  0.00     0.028 C 
ATOM     12  C   LIG d   1      -2.660  77.924 119.310  0.00  0.00     0.006 C 
ENDBRANCH   8  11
ENDBRANCH   7   8
ENDBRANCH   1   7
BRANCH   6  13
ATOM     13  N   LIG d   1       0.983  76.154 116.913  0.00  0.00    -0.311 N 
ATOM     14  C   LIG d   1       1.713  76.590 117.938  0.00  0.00     0.210 C 
ATOM     15  C   LIG d   1       3.228  76.540 117.722  0.00  0.00     0.109 C 
ATOM     16  O   LIG d   1       1.249  76.983 119.019  0.00  0.00    -0.276 OA
ATOM     17  H   LIG d   1       1.443  75.823 116.087  0.00  0.00     0.149 HD
ENDBRANCH   6  13
BRANCH   5  18
ATOM     18  N   LIG d   1      -0.733  73.706 117.537  0.00  0.00     0.381 N 
ATOM     19  H   LIG d   1       0.132  73.935 117.985  0.00  0.00    -0.090 HD
ATOM     20  H   LIG d   1      -0.618  72.830 117.058  0.00  0.00    -0.090 HD
ATOM     21  H   LIG d   1      -1.457  73.627 118.217  0.00  0.00    -0.090 HD
ENDBRANCH   5  18
BRANCH   3  22
ATOM     22  C   LIG d   1      -4.277  75.734 115.035  0.00  0.00     0.382 C 
ATOM     23  O   LIG d   1      -4.603  74.616 114.570  0.00  0.00    -0.241 OA
ATOM     24  O   LIG d   1      -5.034  76.710 114.874  0.00  0.00    -0.241 OA
ENDBRANCH   3  22
TORSDOF 7
ENDMDL
MODEL 7
REMARK VINA RESULT:      -4.6      3.004      4.981
REMARK  7 active torsions:
REMARK  status: ('A' for Active; 'I' for Inactive)
REMARK    1  A    between atoms: C_2  and  C_3 
REMARK    2  A    between atoms: C_3  and  O_6 
REMARK    3  A    between atoms: C_3  and  C_4 
REMARK    4  A    between atoms: C_7  and  O_6 
REMARK    5  A    between atoms: C_9  and  C_10 
REMARK    6  A    between atoms: N_15  and  C_14 
REMARK    7  A    between atoms: N_20  and  C_19 
REMARK       I    between atoms: C_22  and  N_20 
ROOT
ATOM      1  C   LIG d   1      -3.822  76.075 117.190  0.00  0.00     0.161 C 
ATOM      2  C   LIG d   1      -2.651  75.316 117.352  0.00  0.00     0.016 C 
ATOM      3  C   LIG d   1      -1.618  75.661 118.254  0.00  0.00     0.038 C 
ATOM      4  C   LIG d   1      -1.756  76.715 119.170  0.00  0.00     0.028 C 
ATOM      5  C   LIG d   1      -2.704  77.810 118.695  0.00  0.00    -0.047 C 
ATOM      6  C   LIG d   1      -4.040  77.165 118.260  0.00  0.00     0.091 C 
ENDROOT
BRANCH   1   7
ATOM      7  O   LIG d   1      -4.966  75.200 117.126  0.00  0.00    -0.368 OA
BRANCH   7   8
ATOM      8  C   LIG d   1      -5.248  74.613 115.831  0.00  0.00     0.119 C 
BRANCH   8   9
ATOM      9  C   LIG d   1      -6.168  75.589 115.072  0.00  0.00     0.028 C 
ATOM     10  C   LIG d   1      -5.611  75.964 113.688  0.00  0.00     0.006 C 
ENDBRANCH   8   9
BRANCH   8  11
ATOM     11  C   LIG d   1      -6.056  73.320 115.970  0.00  0.00     0.028 C 
ATOM     12  C   LIG d   1      -5.670  72.507 117.216  0.00  0.00     0.006 C 
ENDBRANCH   8  11
ENDBRANCH   7   8
ENDBRANCH   1   7
BRANCH   6  13
ATOM     13  N   LIG d   1      -4.995  78.158 117.703  0.00  0.00    -0.311 N 
ATOM     14  C   LIG d   1      -5.944  78.748 118.426  0.00  0.00     0.210 C 
ATOM     15  C   LIG d   1      -6.834  79.725 117.652  0.00  0.00     0.109 C 
ATOM     16  O   LIG d   1      -6.114  78.579 119.643  0.00  0.00    -0.276 OA
ATOM     17  H   LIG d   1      -4.908  78.377 116.729  0.00  0.00     0.149 HD
ENDBRANCH   6  13
BRANCH   5  18
ATOM     18  N   LIG d   1      -2.862  78.774 119.801  0.00  0.00     0.381 N 
ATOM     19  H   LIG d   1      -2.038  78.775 120.369  0.00  0.00    -0.090 HD
ATOM     20  H   LIG d   1      -3.638  78.489 120.373  0.00  0.00    -0.090 HD
ATOM     21  H   LIG d   1      -3.025  79.687 119.438  0.00  0.00    -0.090 HD
ENDBRANCH   5  18
BRANCH   3  22
ATOM     22  C   LIG d   1      -0.415  74.973 118.217  0.00  0.00     0.382 C 
ATOM     23  O   LIG d   1       0.663  75.585 118.415  0.00  0.00    -0.241 OA
ATOM     24  O   LIG d   1      -0.390  73.758 117.945  0.00  0.00    -0.241 OA
ENDBRANCH   3  22
TORSDOF 7
ENDMDL
MODEL 8
REMARK VINA RESULT:      -4.5     24.885     27.460
REMARK  7 active torsions:
REMARK  status: ('A' for Active; 'I' for Inactive)
REMARK    1  A    between atoms: C_2  and  C_3 
REMARK    2  A    between atoms: C_3  and  O_6 
REMARK    3  A    between atoms: C_3  and  C_4 
REMARK    4  A    between atoms: C_7  and  O_6 
REMARK    5  A    between atoms: C_9  and  C_10 
REMARK    6  A    between atoms: N_15  and  C_14 
REMARK    7  A    between atoms: N_20  and  C_19 
REMARK       I    between atoms: C_22  and  N_20 
ROOT
ATOM      1  C   LIG d   1     -17.432  96.730 116.980  0.00  0.00     0.161 C 
ATOM      2  C   LIG d   1     -18.613  96.874 116.234  0.00  0.00     0.016 C 
ATOM      3  C   LIG d   1     -19.906  96.813 116.803  0.00  0.00     0.038 C 
ATOM      4  C   LIG d   1     -20.102  96.754 118.191  0.00  0.00     0.028 C 
ATOM      5  C   LIG d   1     -18.946  96.099 118.939  0.00  0.00    -0.047 C 
ATOM      6  C   LIG d   1     -17.624  96.775 118.510  0.00  0.00     0.091 C 
ENDROOT
BRANCH   1   7
ATOM      7  O   LIG d   1     -16.468  97.719 116.567  0.00  0.00    -0.368 OA
BRANCH   7   8
ATOM      8  C   LIG d   1     -17.000  99.022 116.224  0.00  0.00     0.119 C 
BRANCH   8   9
ATOM      9  C   LIG d   1     -16.367  99.443 114.883  0.00  0.00     0.028 C 
ATOM     10  C   LIG d   1     -17.385  99.456 113.731  0.00  0.00     0.006 C 
ENDBRANCH   8   9
BRANCH   8  11
ATOM     11  C   LIG d   1     -16.559 100.087 117.232  0.00  0.00     0.028 C 
ATOM     12  C   LIG d   1     -17.654 100.427 118.256  0.00  0.00     0.006 C 
ENDBRANCH   8  11
ENDBRANCH   7   8
ENDBRANCH   1   7
BRANCH   6  13
ATOM     13  N   LIG d   1     -16.434  96.138 119.132  0.00  0.00    -0.311 N 
ATOM     14  C   LIG d   1     -15.648  96.756 120.013  0.00  0.00     0.210 C 
ATOM     15  C   LIG d   1     -14.463  95.925 120.516  0.00  0.00     0.109 C 
ATOM     16  O   LIG d   1     -15.838  97.901 120.449  0.00  0.00    -0.276 OA
ATOM     17  H   LIG d   1     -16.224  95.198 118.858  0.00  0.00     0.149 HD
ENDBRANCH   6  13
BRANCH   5  18
ATOM     18  N   LIG d   1     -19.220  96.227 120.383  0.00  0.00     0.381 N 
ATOM     19  H   LIG d   1     -18.488  96.750 120.821  0.00  0.00    -0.090 HD
ATOM     20  H   LIG d   1     -19.240  95.310 120.793  0.00  0.00    -0.090 HD
ATOM     21  H   LIG d   1     -20.095  96.682 120.525  0.00  0.00    -0.090 HD
ENDBRANCH   5  18
BRANCH   3  22
ATOM     22  C   LIG d   1     -21.019  96.771 115.978  0.00  0.00     0.382 C 
ATOM     23  O   LIG d   1     -21.271  95.735 115.316  0.00  0.00    -0.241 OA
ATOM     24  O   LIG d   1     -21.750  97.772 115.852  0.00  0.00    -0.241 OA
ENDBRANCH   3  22
TORSDOF 7
ENDMDL
MODEL 9
REMARK VINA RESULT:      -4.5     20.551     22.980
REMARK  7 active torsions:
REMARK  status: ('A' for Active; 'I' for Inactive)
REMARK    1  A    between atoms: C_2  and  C_3 
REMARK    2  A    between atoms: C_3  and  O_6 
REMARK    3  A    between atoms: C_3  and  C_4 
REMARK    4  A    between atoms: C_7  and  O_6 
REMARK    5  A    between atoms: C_9  and  C_10 
REMARK    6  A    between atoms: N_15  and  C_14 
REMARK    7  A    between atoms: N_20  and  C_19 
REMARK       I    between atoms: C_22  and  N_20 
ROOT
ATOM      1  C   LIG d   1     -23.029  82.961 115.763  0.00  0.00     0.161 C 
ATOM      2  C   LIG d   1     -22.549  84.260 115.525  0.00  0.00     0.016 C 
ATOM      3  C   LIG d   1     -23.093  85.124 114.547  0.00  0.00     0.038 C 
ATOM      4  C   LIG d   1     -24.261  84.801 113.840  0.00  0.00     0.028 C 
ATOM      5  C   LIG d   1     -24.482  83.300 113.688  0.00  0.00    -0.047 C 
ATOM      6  C   LIG d   1     -24.373  82.633 115.079  0.00  0.00     0.091 C 
ENDROOT
BRANCH   1   7
ATOM      7  O   LIG d   1     -23.120  82.727 117.182  0.00  0.00    -0.368 OA
BRANCH   7   8
ATOM      8  C   LIG d   1     -21.981  83.149 117.972  0.00  0.00     0.119 C 
BRANCH   8   9
ATOM      9  C   LIG d   1     -21.167  81.889 118.323  0.00  0.00     0.028 C 
ATOM     10  C   LIG d   1     -20.428  82.022 119.665  0.00  0.00     0.006 C 
ENDBRANCH   8   9
BRANCH   8  11
ATOM     11  C   LIG d   1     -22.422  83.735 119.317  0.00  0.00     0.028 C 
ATOM     12  C   LIG d   1     -22.483  85.270 119.307  0.00  0.00     0.006 C 
ENDBRANCH   8  11
ENDBRANCH   7   8
ENDBRANCH   1   7
BRANCH   6  13
ATOM     13  N   LIG d   1     -24.492  81.154 115.009  0.00  0.00    -0.311 N 
ATOM     14  C   LIG d   1     -25.645  80.503 115.158  0.00  0.00     0.210 C 
ATOM     15  C   LIG d   1     -25.543  78.978 115.070  0.00  0.00     0.109 C 
ATOM     16  O   LIG d   1     -26.747  81.047 115.323  0.00  0.00    -0.276 OA
ATOM     17  H   LIG d   1     -23.651  80.635 114.847  0.00  0.00     0.149 HD
ENDBRANCH   6  13
BRANCH   5  18
ATOM     18  N   LIG d   1     -25.800  83.105 113.055  0.00  0.00     0.381 N 
ATOM     19  H   LIG d   1     -25.688  82.635 112.179  0.00  0.00    -0.090 HD
ATOM     20  H   LIG d   1     -26.213  84.004 112.881  0.00  0.00    -0.090 HD
ATOM     21  H   LIG d   1     -26.390  82.571 113.654  0.00  0.00    -0.090 HD
ENDBRANCH   5  18
BRANCH   3  22
ATOM     22  C   LIG d   1     -22.444  86.310 114.241  0.00  0.00     0.382 C 
ATOM     23  O   LIG d   1     -21.495  86.312 113.421  0.00  0.00    -0.241 OA
ATOM     24  O   LIG d   1     -22.767  87.372 114.807  0.00  0.00    -0.241 OA
ENDBRANCH   3  22
TORSDOF 7
ENDMDL
