MODEL 1
REMARK VINA RESULT:      -5.4      0.000      0.000
REMARK  7 active torsions:
REMARK  status: ('A' for Active; 'I' for Inactive)
REMARK    1  A    between atoms: C_2  and  C_3 
REMARK    2  A    between atoms: C_3  and  O_6 
REMARK    3  A    between atoms: C_3  and  C_4 
REMARK    4  A    between atoms: C_7  and  O_6 
REMARK    5  A    between atoms: C_9  and  C_10 
REMARK    6  A    between atoms: N_15  and  C_14 
REMARK    7  A    between atoms: N_20  and  C_19 
REMARK       I    between atoms: C_22  and  N_20 
ROOT
ATOM      1  C   LIG d   1      -6.279  92.964 117.936  0.00  0.00     0.161 C 
ATOM      2  C   LIG d   1      -6.913  91.861 117.340  0.00  0.00     0.016 C 
ATOM      3  C   LIG d   1      -6.236  90.673 116.983  0.00  0.00     0.038 C 
ATOM      4  C   LIG d   1      -4.898  90.447 117.339  0.00  0.00     0.028 C 
ATOM      5  C   LIG d   1      -4.087  91.730 117.491  0.00  0.00    -0.047 C 
ATOM      6  C   LIG d   1      -4.844  92.693 118.433  0.00  0.00     0.091 C 
ENDROOT
BRANCH   1   7
ATOM      7  O   LIG d   1      -7.094  93.473 119.011  0.00  0.00    -0.368 OA
BRANCH   7   8
ATOM      8  C   LIG d   1      -8.062  94.489 118.650  0.00  0.00     0.119 C 
BRANCH   8   9
ATOM      9  C   LIG d   1      -7.279  95.746 118.226  0.00  0.00     0.028 C 
ATOM     10  C   LIG d   1      -6.643  96.473 119.423  0.00  0.00     0.006 C 
ENDBRANCH   8   9
BRANCH   8  11
ATOM     11  C   LIG d   1      -8.895  94.919 119.861  0.00  0.00     0.028 C 
ATOM     12  C   LIG d   1      -9.922  93.858 120.286  0.00  0.00     0.006 C 
ENDBRANCH   8  11
ENDBRANCH   7   8
ENDBRANCH   1   7
BRANCH   6  13
ATOM     13  N   LIG d   1      -4.160  94.006 118.570  0.00  0.00    -0.311 N 
ATOM     14  C   LIG d   1      -3.312  94.291 119.556  0.00  0.00     0.210 C 
ATOM     15  C   LIG d   1      -2.734  95.710 119.522  0.00  0.00     0.109 C 
ATOM     16  O   LIG d   1      -2.959  93.494 120.438  0.00  0.00    -0.276 OA
ATOM     17  H   LIG d   1      -4.365  94.701 117.879  0.00  0.00     0.149 HD
ENDBRANCH   6  13
BRANCH   5  18
ATOM     18  N   LIG d   1      -2.752  91.356 117.997  0.00  0.00     0.381 N 
ATOM     19  H   LIG d   1      -2.068  92.002 117.657  0.00  0.00    -0.090 HD
ATOM     20  H   LIG d   1      -2.520  90.440 117.654  0.00  0.00    -0.090 HD
ATOM     21  H   LIG d   1      -2.753  91.355 118.993  0.00  0.00    -0.090 HD
ENDBRANCH   5  18
BRANCH   3  22
ATOM     22  C   LIG d   1      -6.887  89.711 116.226  0.00  0.00     0.382 C 
ATOM     23  O   LIG d   1      -7.985  89.244 116.616  0.00  0.00    -0.241 OA
ATOM     24  O   LIG d   1      -6.370  89.272 115.181  0.00  0.00    -0.241 OA
ENDBRANCH   3  22
TORSDOF 7
ENDMDL
MODEL 2
REMARK VINA RESULT:      -5.4     12.502     15.503
REMARK  7 active torsions:
REMARK  status: ('A' for Active; 'I' for Inactive)
REMARK    1  A    between atoms: C_2  and  C_3 
REMARK    2  A    between atoms: C_3  and  O_6 
REMARK    3  A    between atoms: C_3  and  C_4 
REMARK    4  A    between atoms: C_7  and  O_6 
REMARK    5  A    between atoms: C_9  and  C_10 
REMARK    6  A    between atoms: N_15  and  C_14 
REMARK    7  A    between atoms: N_20  and  C_19 
REMARK       I    between atoms: C_22  and  N_20 
ROOT
ATOM      1  C   LIG d   1      -6.903  77.604 117.284  0.00  0.00     0.161 C 
ATOM      2  C   LIG d   1      -6.342  76.721 116.347  0.00  0.00     0.016 C 
ATOM      3  C   LIG d   1      -4.949  76.575 116.152  0.00  0.00     0.038 C 
ATOM      4  C   LIG d   1      -4.013  77.196 116.992  0.00  0.00     0.028 C 
ATOM      5  C   LIG d   1      -4.528  78.486 117.623  0.00  0.00    -0.047 C 
ATOM      6  C   LIG d   1      -5.897  78.208 118.287  0.00  0.00     0.091 C 
ENDROOT
BRANCH   1   7
ATOM      7  O   LIG d   1      -7.979  76.952 117.986  0.00  0.00    -0.368 OA
BRANCH   7   8
ATOM      8  C   LIG d   1      -9.320  77.309 117.570  0.00  0.00     0.119 C 
BRANCH   8   9
ATOM      9  C   LIG d   1      -9.901  78.256 118.639  0.00  0.00     0.028 C 
ATOM     10  C   LIG d   1      -9.441  77.888 120.060  0.00  0.00     0.006 C 
ENDBRANCH   8   9
BRANCH   8  11
ATOM     11  C   LIG d   1     -10.245  76.089 117.564  0.00  0.00     0.028 C 
ATOM     12  C   LIG d   1      -9.489  74.767 117.775  0.00  0.00     0.006 C 
ENDBRANCH   8  11
ENDBRANCH   7   8
ENDBRANCH   1   7
BRANCH   6  13
ATOM     13  N   LIG d   1      -6.510  79.436 118.855  0.00  0.00    -0.311 N 
ATOM     14  C   LIG d   1      -6.944  80.452 118.110  0.00  0.00     0.210 C 
ATOM     15  C   LIG d   1      -7.525  81.630 118.898  0.00  0.00     0.109 C 
ATOM     16  O   LIG d   1      -6.931  80.475 116.870  0.00  0.00    -0.276 OA
ATOM     17  H   LIG d   1      -6.588  79.488 119.852  0.00  0.00     0.149 HD
ENDBRANCH   6  13
BRANCH   5  18
ATOM     18  N   LIG d   1      -3.506  78.953 118.579  0.00  0.00     0.381 N 
ATOM     19  H   LIG d   1      -3.623  78.484 119.455  0.00  0.00    -0.090 HD
ATOM     20  H   LIG d   1      -3.629  79.939 118.730  0.00  0.00    -0.090 HD
ATOM     21  H   LIG d   1      -2.595  78.775 118.218  0.00  0.00    -0.090 HD
ENDBRANCH   5  18
BRANCH   3  22
ATOM     22  C   LIG d   1      -4.480  75.831 115.080  0.00  0.00     0.382 C 
ATOM     23  O   LIG d   1      -4.724  76.199 113.906  0.00  0.00    -0.241 OA
ATOM     24  O   LIG d   1      -3.853  74.772 115.273  0.00  0.00    -0.241 OA
ENDBRANCH   3  22
TORSDOF 7
ENDMDL
MODEL 3
REMARK VINA RESULT:      -5.3      2.430      4.978
REMARK  7 active torsions:
REMARK  status: ('A' for Active; 'I' for Inactive)
REMARK    1  A    between atoms: C_2  and  C_3 
REMARK    2  A    between atoms: C_3  and  O_6 
REMARK    3  A    between atoms: C_3  and  C_4 
REMARK    4  A    between atoms: C_7  and  O_6 
REMARK    5  A    between atoms: C_9  and  C_10 
REMARK    6  A    between atoms: N_15  and  C_14 
REMARK    7  A    between atoms: N_20  and  C_19 
REMARK       I    between atoms: C_22  and  N_20 
ROOT
ATOM      1  C   LIG d   1      -4.450  90.935 117.923  0.00  0.00     0.161 C 
ATOM      2  C   LIG d   1      -5.288  90.183 117.084  0.00  0.00     0.016 C 
ATOM      3  C   LIG d   1      -6.443  90.711 116.462  0.00  0.00     0.038 C 
ATOM      4  C   LIG d   1      -6.756  92.077 116.517  0.00  0.00     0.028 C 
ATOM      5  C   LIG d   1      -6.219  92.772 117.764  0.00  0.00    -0.047 C 
ATOM      6  C   LIG d   1      -4.712  92.456 117.905  0.00  0.00     0.091 C 
ENDROOT
BRANCH   1   7
ATOM      7  O   LIG d   1      -3.070  90.662 117.607  0.00  0.00    -0.368 OA
BRANCH   7   8
ATOM      8  C   LIG d   1      -2.363  89.801 118.533  0.00  0.00     0.119 C 
BRANCH   8   9
ATOM      9  C   LIG d   1      -1.023  90.483 118.869  0.00  0.00     0.028 C 
ATOM     10  C   LIG d   1      -0.093  90.583 117.648  0.00  0.00     0.006 C 
ENDBRANCH   8   9
BRANCH   8  11
ATOM     11  C   LIG d   1      -1.987  88.468 117.879  0.00  0.00     0.028 C 
ATOM     12  C   LIG d   1      -2.234  87.262 118.798  0.00  0.00     0.006 C 
ENDBRANCH   8  11
ENDBRANCH   7   8
ENDBRANCH   1   7
BRANCH   6  13
ATOM     13  N   LIG d   1      -4.127  93.028 119.146  0.00  0.00    -0.311 N 
ATOM     14  C   LIG d   1      -2.976  93.697 119.172  0.00  0.00     0.210 C 
ATOM     15  C   LIG d   1      -2.543  94.185 120.558  0.00  0.00     0.109 C 
ATOM     16  O   LIG d   1      -2.288  93.961 118.174  0.00  0.00    -0.276 OA
ATOM     17  H   LIG d   1      -4.636  92.887 119.997  0.00  0.00     0.149 HD
ENDBRANCH   6  13
BRANCH   5  18
ATOM     18  N   LIG d   1      -6.496  94.214 117.625  0.00  0.00     0.381 N 
ATOM     19  H   LIG d   1      -7.148  94.364 116.880  0.00  0.00    -0.090 HD
ATOM     20  H   LIG d   1      -5.641  94.689 117.395  0.00  0.00    -0.090 HD
ATOM     21  H   LIG d   1      -6.866  94.574 118.477  0.00  0.00    -0.090 HD
ENDBRANCH   5  18
BRANCH   3  22
ATOM     22  C   LIG d   1      -7.321  89.860 115.808  0.00  0.00     0.382 C 
ATOM     23  O   LIG d   1      -7.560  90.023 114.587  0.00  0.00    -0.241 OA
ATOM     24  O   LIG d   1      -7.912  88.960 116.434  0.00  0.00    -0.241 OA
ENDBRANCH   3  22
TORSDOF 7
ENDMDL
MODEL 4
REMARK VINA RESULT:      -5.2      3.100      5.860
REMARK  7 active torsions:
REMARK  status: ('A' for Active; 'I' for Inactive)
REMARK    1  A    between atoms: C_2  and  C_3 
REMARK    2  A    between atoms: C_3  and  O_6 
REMARK    3  A    between atoms: C_3  and  C_4 
REMARK    4  A    between atoms: C_7  and  O_6 
REMARK    5  A    between atoms: C_9  and  C_10 
REMARK    6  A    between atoms: N_15  and  C_14 
REMARK    7  A    between atoms: N_20  and  C_19 
REMARK       I    between atoms: C_22  and  N_20 
ROOT
ATOM      1  C   LIG d   1      -3.629  90.010 117.691  0.00  0.00     0.161 C 
ATOM      2  C   LIG d   1      -4.701  89.805 116.807  0.00  0.00     0.016 C 
ATOM      3  C   LIG d   1      -5.608  90.824 116.434  0.00  0.00     0.038 C 
ATOM      4  C   LIG d   1      -5.414  92.162 116.807  0.00  0.00     0.028 C 
ATOM      5  C   LIG d   1      -4.635  92.322 118.108  0.00  0.00    -0.047 C 
ATOM      6  C   LIG d   1      -3.336  91.488 118.021  0.00  0.00     0.091 C 
ENDROOT
BRANCH   1   7
ATOM      7  O   LIG d   1      -2.445  89.365 117.182  0.00  0.00    -0.368 OA
BRANCH   7   8
ATOM      8  C   LIG d   1      -2.264  87.977 117.556  0.00  0.00     0.119 C 
BRANCH   8   9
ATOM      9  C   LIG d   1      -2.605  87.853 119.053  0.00  0.00     0.028 C 
ATOM     10  C   LIG d   1      -2.333  86.442 119.602  0.00  0.00     0.006 C 
ENDBRANCH   8   9
BRANCH   8  11
ATOM     11  C   LIG d   1      -0.796  87.555 117.438  0.00  0.00     0.028 C 
ATOM     12  C   LIG d   1       0.179  88.666 117.860  0.00  0.00     0.006 C 
ENDBRANCH   8  11
ENDBRANCH   7   8
ENDBRANCH   1   7
BRANCH   6  13
ATOM     13  N   LIG d   1      -2.555  91.521 119.285  0.00  0.00    -0.311 N 
ATOM     14  C   LIG d   1      -1.252  91.793 119.335  0.00  0.00     0.210 C 
ATOM     15  C   LIG d   1      -0.637  91.755 120.738  0.00  0.00     0.109 C 
ATOM     16  O   LIG d   1      -0.554  92.094 118.355  0.00  0.00    -0.276 OA
ATOM     17  H   LIG d   1      -3.049  91.320 120.132  0.00  0.00     0.149 HD
ENDBRANCH   6  13
BRANCH   5  18
ATOM     18  N   LIG d   1      -4.385  93.762 118.305  0.00  0.00     0.381 N 
ATOM     19  H   LIG d   1      -3.894  93.907 119.164  0.00  0.00    -0.090 HD
ATOM     20  H   LIG d   1      -5.268  94.240 118.362  0.00  0.00    -0.090 HD
ATOM     21  H   LIG d   1      -3.853  94.123 117.544  0.00  0.00    -0.090 HD
ENDBRANCH   5  18
BRANCH   3  22
ATOM     22  C   LIG d   1      -6.747  90.500 115.713  0.00  0.00     0.382 C 
ATOM     23  O   LIG d   1      -7.297  89.384 115.878  0.00  0.00    -0.241 OA
ATOM     24  O   LIG d   1      -7.206  91.291 114.868  0.00  0.00    -0.241 OA
ENDBRANCH   3  22
TORSDOF 7
ENDMDL
MODEL 5
REMARK VINA RESULT:      -5.2     12.531     15.463
REMARK  7 active torsions:
REMARK  status: ('A' for Active; 'I' for Inactive)
REMARK    1  A    between atoms: C_2  and  C_3 
REMARK    2  A    between atoms: C_3  and  O_6 
REMARK    3  A    between atoms: C_3  and  C_4 
REMARK    4  A    between atoms: C_7  and  O_6 
REMARK    5  A    between atoms: C_9  and  C_10 
REMARK    6  A    between atoms: N_15  and  C_14 
REMARK    7  A    between atoms: N_20  and  C_19 
REMARK       I    between atoms: C_22  and  N_20 
ROOT
ATOM      1  C   LIG d   1      -7.426  78.184 116.826  0.00  0.00     0.161 C 
ATOM      2  C   LIG d   1      -7.116  77.009 116.120  0.00  0.00     0.016 C 
ATOM      3  C   LIG d   1      -5.825  76.433 116.096  0.00  0.00     0.038 C 
ATOM      4  C   LIG d   1      -4.785  76.912 116.905  0.00  0.00     0.028 C 
ATOM      5  C   LIG d   1      -4.914  78.393 117.245  0.00  0.00    -0.047 C 
ATOM      6  C   LIG d   1      -6.331  78.658 117.805  0.00  0.00     0.091 C 
ENDROOT
BRANCH   1   7
ATOM      7  O   LIG d   1      -8.680  78.021 117.519  0.00  0.00    -0.368 OA
BRANCH   7   8
ATOM      8  C   LIG d   1      -8.763  76.898 118.431  0.00  0.00     0.119 C 
BRANCH   8   9
ATOM      9  C   LIG d   1      -9.952  76.026 117.983  0.00  0.00     0.028 C 
ATOM     10  C   LIG d   1      -9.550  74.560 117.750  0.00  0.00     0.006 C 
ENDBRANCH   8   9
BRANCH   8  11
ATOM     11  C   LIG d   1      -9.109  77.358 119.850  0.00  0.00     0.028 C 
ATOM     12  C   LIG d   1      -9.852  78.703 119.876  0.00  0.00     0.006 C 
ENDBRANCH   8  11
ENDBRANCH   7   8
ENDBRANCH   1   7
BRANCH   6  13
ATOM     13  N   LIG d   1      -6.570  80.097 118.084  0.00  0.00    -0.311 N 
ATOM     14  C   LIG d   1      -6.682  80.597 119.314  0.00  0.00     0.210 C 
ATOM     15  C   LIG d   1      -6.947  82.104 119.378  0.00  0.00     0.109 C 
ATOM     16  O   LIG d   1      -6.555  79.940 120.358  0.00  0.00    -0.276 OA
ATOM     17  H   LIG d   1      -6.654  80.707 117.295  0.00  0.00     0.149 HD
ENDBRANCH   6  13
BRANCH   5  18
ATOM     18  N   LIG d   1      -3.843  78.725 118.204  0.00  0.00     0.381 N 
ATOM     19  H   LIG d   1      -3.121  79.240 117.740  0.00  0.00    -0.090 HD
ATOM     20  H   LIG d   1      -3.445  77.872 118.555  0.00  0.00    -0.090 HD
ATOM     21  H   LIG d   1      -4.213  79.263 118.956  0.00  0.00    -0.090 HD
ENDBRANCH   5  18
BRANCH   3  22
ATOM     22  C   LIG d   1      -5.555  75.389 115.225  0.00  0.00     0.382 C 
ATOM     23  O   LIG d   1      -4.494  75.390 114.555  0.00  0.00    -0.241 OA
ATOM     24  O   LIG d   1      -6.379  74.468 115.067  0.00  0.00    -0.241 OA
ENDBRANCH   3  22
TORSDOF 7
ENDMDL
MODEL 6
REMARK VINA RESULT:      -5.0      1.958      4.425
REMARK  7 active torsions:
REMARK  status: ('A' for Active; 'I' for Inactive)
REMARK    1  A    between atoms: C_2  and  C_3 
REMARK    2  A    between atoms: C_3  and  O_6 
REMARK    3  A    between atoms: C_3  and  C_4 
REMARK    4  A    between atoms: C_7  and  O_6 
REMARK    5  A    between atoms: C_9  and  C_10 
REMARK    6  A    between atoms: N_15  and  C_14 
REMARK    7  A    between atoms: N_20  and  C_19 
REMARK       I    between atoms: C_22  and  N_20 
ROOT
ATOM      1  C   LIG d   1      -4.614  92.743 118.414  0.00  0.00     0.161 C 
ATOM      2  C   LIG d   1      -4.391  91.597 117.633  0.00  0.00     0.016 C 
ATOM      3  C   LIG d   1      -5.366  91.041 116.772  0.00  0.00     0.038 C 
ATOM      4  C   LIG d   1      -6.586  91.685 116.519  0.00  0.00     0.028 C 
ATOM      5  C   LIG d   1      -7.052  92.573 117.668  0.00  0.00    -0.047 C 
ATOM      6  C   LIG d   1      -5.899  93.523 118.068  0.00  0.00     0.091 C 
ENDROOT
BRANCH   1   7
ATOM      7  O   LIG d   1      -3.466  93.613 118.344  0.00  0.00    -0.368 OA
BRANCH   7   8
ATOM      8  C   LIG d   1      -2.554  93.557 119.469  0.00  0.00     0.119 C 
BRANCH   8   9
ATOM      9  C   LIG d   1      -2.720  94.866 120.265  0.00  0.00     0.028 C 
ATOM     10  C   LIG d   1      -2.947  96.083 119.352  0.00  0.00     0.006 C 
ENDBRANCH   8   9
BRANCH   8  11
ATOM     11  C   LIG d   1      -1.095  93.547 119.003  0.00  0.00     0.028 C 
ATOM     12  C   LIG d   1      -0.600  92.142 118.626  0.00  0.00     0.006 C 
ENDBRANCH   8  11
ENDBRANCH   7   8
ENDBRANCH   1   7
BRANCH   6  13
ATOM     13  N   LIG d   1      -6.243  94.369 119.240  0.00  0.00    -0.311 N 
ATOM     14  C   LIG d   1      -6.881  95.534 119.143  0.00  0.00     0.210 C 
ATOM     15  C   LIG d   1      -7.119  96.255 120.473  0.00  0.00     0.109 C 
ATOM     16  O   LIG d   1      -7.303  96.022 118.083  0.00  0.00    -0.276 OA
ATOM     17  H   LIG d   1      -5.966  94.033 120.142  0.00  0.00     0.149 HD
ENDBRANCH   6  13
BRANCH   5  18
ATOM     18  N   LIG d   1      -8.261  93.288 117.217  0.00  0.00     0.381 N 
ATOM     19  H   LIG d   1      -8.164  93.543 116.255  0.00  0.00    -0.090 HD
ATOM     20  H   LIG d   1      -8.361  94.129 117.758  0.00  0.00    -0.090 HD
ATOM     21  H   LIG d   1      -9.063  92.710 117.336  0.00  0.00    -0.090 HD
ENDBRANCH   5  18
BRANCH   3  22
ATOM     22  C   LIG d   1      -5.139  89.806 116.185  0.00  0.00     0.382 C 
ATOM     23  O   LIG d   1      -4.125  89.138 116.501  0.00  0.00    -0.241 OA
ATOM     24  O   LIG d   1      -5.912  89.371 115.310  0.00  0.00    -0.241 OA
ENDBRANCH   3  22
TORSDOF 7
ENDMDL
MODEL 7
REMARK VINA RESULT:      -5.0      2.061      4.117
REMARK  7 active torsions:
REMARK  status: ('A' for Active; 'I' for Inactive)
REMARK    1  A    between atoms: C_2  and  C_3 
REMARK    2  A    between atoms: C_3  and  O_6 
REMARK    3  A    between atoms: C_3  and  C_4 
REMARK    4  A    between atoms: C_7  and  O_6 
REMARK    5  A    between atoms: C_9  and  C_10 
REMARK    6  A    between atoms: N_15  and  C_14 
REMARK    7  A    between atoms: N_20  and  C_19 
REMARK       I    between atoms: C_22  and  N_20 
ROOT
ATOM      1  C   LIG d   1      -5.356  92.125 119.495  0.00  0.00     0.161 C 
ATOM      2  C   LIG d   1      -4.538  91.220 118.799  0.00  0.00     0.016 C 
ATOM      3  C   LIG d   1      -4.755  90.851 117.452  0.00  0.00     0.038 C 
ATOM      4  C   LIG d   1      -5.724  91.482 116.658  0.00  0.00     0.028 C 
ATOM      5  C   LIG d   1      -6.898  92.035 117.459  0.00  0.00    -0.047 C 
ATOM      6  C   LIG d   1      -6.351  92.907 118.613  0.00  0.00     0.091 C 
ENDROOT
BRANCH   1   7
ATOM      7  O   LIG d   1      -4.540  93.035 120.258  0.00  0.00    -0.368 OA
BRANCH   7   8
ATOM      8  C   LIG d   1      -4.139  94.252 119.581  0.00  0.00     0.119 C 
BRANCH   8   9
ATOM      9  C   LIG d   1      -2.599  94.254 119.506  0.00  0.00     0.028 C 
ATOM     10  C   LIG d   1      -2.081  93.958 118.088  0.00  0.00     0.006 C 
ENDBRANCH   8   9
BRANCH   8  11
ATOM     11  C   LIG d   1      -4.506  95.493 120.400  0.00  0.00     0.028 C 
ATOM     12  C   LIG d   1      -4.788  96.723 119.524  0.00  0.00     0.006 C 
ENDBRANCH   8  11
ENDBRANCH   7   8
ENDBRANCH   1   7
BRANCH   6  13
ATOM     13  N   LIG d   1      -7.430  93.419 119.497  0.00  0.00    -0.311 N 
ATOM     14  C   LIG d   1      -8.053  94.580 119.297  0.00  0.00     0.210 C 
ATOM     15  C   LIG d   1      -9.121  94.928 120.339  0.00  0.00     0.109 C 
ATOM     16  O   LIG d   1      -7.844  95.339 118.339  0.00  0.00    -0.276 OA
ATOM     17  H   LIG d   1      -7.685  92.852 120.282  0.00  0.00     0.149 HD
ENDBRANCH   6  13
BRANCH   5  18
ATOM     18  N   LIG d   1      -7.761  92.785 116.527  0.00  0.00     0.381 N 
ATOM     19  H   LIG d   1      -8.437  93.313 117.041  0.00  0.00    -0.090 HD
ATOM     20  H   LIG d   1      -8.250  92.132 115.940  0.00  0.00    -0.090 HD
ATOM     21  H   LIG d   1      -7.208  93.396 115.967  0.00  0.00    -0.090 HD
ENDBRANCH   5  18
BRANCH   3  22
ATOM     22  C   LIG d   1      -4.024  89.812 116.897  0.00  0.00     0.382 C 
ATOM     23  O   LIG d   1      -2.819  89.656 117.210  0.00  0.00    -0.241 OA
ATOM     24  O   LIG d   1      -4.542  89.054 116.055  0.00  0.00    -0.241 OA
ENDBRANCH   3  22
TORSDOF 7
ENDMDL
MODEL 8
REMARK VINA RESULT:      -5.0     14.624     16.839
REMARK  7 active torsions:
REMARK  status: ('A' for Active; 'I' for Inactive)
REMARK    1  A    between atoms: C_2  and  C_3 
REMARK    2  A    between atoms: C_3  and  O_6 
REMARK    3  A    between atoms: C_3  and  C_4 
REMARK    4  A    between atoms: C_7  and  O_6 
REMARK    5  A    between atoms: C_9  and  C_10 
REMARK    6  A    between atoms: N_15  and  C_14 
REMARK    7  A    between atoms: N_20  and  C_19 
REMARK       I    between atoms: C_22  and  N_20 
ROOT
ATOM      1  C   LIG d   1      -3.217  77.298 117.129  0.00  0.00     0.161 C 
ATOM      2  C   LIG d   1      -3.145  78.081 115.965  0.00  0.00     0.016 C 
ATOM      3  C   LIG d   1      -2.192  77.870 114.943  0.00  0.00     0.038 C 
ATOM      4  C   LIG d   1      -1.336  76.759 114.945  0.00  0.00     0.028 C 
ATOM      5  C   LIG d   1      -1.032  76.231 116.343  0.00  0.00    -0.047 C 
ATOM      6  C   LIG d   1      -2.364  76.013 117.097  0.00  0.00     0.091 C 
ENDROOT
BRANCH   1   7
ATOM      7  O   LIG d   1      -4.592  76.979 117.420  0.00  0.00    -0.368 OA
BRANCH   7   8
ATOM      8  C   LIG d   1      -5.567  77.404 116.436  0.00  0.00     0.119 C 
BRANCH   8   9
ATOM      9  C   LIG d   1      -6.628  78.247 117.169  0.00  0.00     0.028 C 
ATOM     10  C   LIG d   1      -6.016  79.136 118.266  0.00  0.00     0.006 C 
ENDBRANCH   8   9
BRANCH   8  11
ATOM     11  C   LIG d   1      -6.329  76.210 115.854  0.00  0.00     0.028 C 
ATOM     12  C   LIG d   1      -5.486  75.390 114.864  0.00  0.00     0.006 C 
ENDBRANCH   8  11
ENDBRANCH   7   8
ENDBRANCH   1   7
BRANCH   6  13
ATOM     13  N   LIG d   1      -2.154  75.577 118.503  0.00  0.00    -0.311 N 
ATOM     14  C   LIG d   1      -2.136  74.300 118.879  0.00  0.00     0.210 C 
ATOM     15  C   LIG d   1      -1.926  74.071 120.379  0.00  0.00     0.109 C 
ATOM     16  O   LIG d   1      -2.243  73.333 118.109  0.00  0.00    -0.276 OA
ATOM     17  H   LIG d   1      -2.028  76.295 119.189  0.00  0.00     0.149 HD
ENDBRANCH   6  13
BRANCH   5  18
ATOM     18  N   LIG d   1      -0.244  74.994 116.191  0.00  0.00     0.381 N 
ATOM     19  H   LIG d   1      -0.595  74.461 115.421  0.00  0.00    -0.090 HD
ATOM     20  H   LIG d   1      -0.340  74.442 117.026  0.00  0.00    -0.090 HD
ATOM     21  H   LIG d   1       0.715  75.217 116.040  0.00  0.00    -0.090 HD
ENDBRANCH   5  18
BRANCH   3  22
ATOM     22  C   LIG d   1      -2.061  78.800 113.922  0.00  0.00     0.382 C 
ATOM     23  O   LIG d   1      -0.936  79.289 113.660  0.00  0.00    -0.241 OA
ATOM     24  O   LIG d   1      -3.062  79.188 113.290  0.00  0.00    -0.241 OA
ENDBRANCH   3  22
TORSDOF 7
ENDMDL
MODEL 9
REMARK VINA RESULT:      -4.8      2.498      5.146
REMARK  7 active torsions:
REMARK  status: ('A' for Active; 'I' for Inactive)
REMARK    1  A    between atoms: C_2  and  C_3 
REMARK    2  A    between atoms: C_3  and  O_6 
REMARK    3  A    between atoms: C_3  and  C_4 
REMARK    4  A    between atoms: C_7  and  O_6 
REMARK    5  A    between atoms: C_9  and  C_10 
REMARK    6  A    between atoms: N_15  and  C_14 
REMARK    7  A    between atoms: N_20  and  C_19 
REMARK       I    between atoms: C_22  and  N_20 
ROOT
ATOM      1  C   LIG d   1      -4.337  91.717 118.481  0.00  0.00     0.161 C 
ATOM      2  C   LIG d   1      -5.406  92.626 118.545  0.00  0.00     0.016 C 
ATOM      3  C   LIG d   1      -6.526  92.571 117.684  0.00  0.00     0.038 C 
ATOM      4  C   LIG d   1      -6.726  91.506 116.794  0.00  0.00     0.028 C 
ATOM      5  C   LIG d   1      -5.429  90.841 116.343  0.00  0.00    -0.047 C 
ATOM      6  C   LIG d   1      -4.590  90.482 117.591  0.00  0.00     0.091 C 
ENDROOT
BRANCH   1   7
ATOM      7  O   LIG d   1      -3.964  91.307 119.812  0.00  0.00    -0.368 OA
BRANCH   7   8
ATOM      8  C   LIG d   1      -2.692  91.802 120.298  0.00  0.00     0.119 C 
BRANCH   8   9
ATOM      9  C   LIG d   1      -2.990  92.932 121.304  0.00  0.00     0.028 C 
ATOM     10  C   LIG d   1      -2.792  94.329 120.692  0.00  0.00     0.006 C 
ENDBRANCH   8   9
BRANCH   8  11
ATOM     11  C   LIG d   1      -1.885  92.461 119.176  0.00  0.00     0.028 C 
ATOM     12  C   LIG d   1      -0.558  91.739 118.894  0.00  0.00     0.006 C 
ENDBRANCH   8  11
ENDBRANCH   7   8
ENDBRANCH   1   7
BRANCH   6  13
ATOM     13  N   LIG d   1      -3.267  89.904 117.237  0.00  0.00    -0.311 N 
ATOM     14  C   LIG d   1      -2.754  88.829 117.832  0.00  0.00     0.210 C 
ATOM     15  C   LIG d   1      -1.369  88.411 117.330  0.00  0.00     0.109 C 
ATOM     16  O   LIG d   1      -3.329  88.162 118.706  0.00  0.00    -0.276 OA
ATOM     17  H   LIG d   1      -2.747  90.364 116.516  0.00  0.00     0.149 HD
ENDBRANCH   6  13
BRANCH   5  18
ATOM     18  N   LIG d   1      -5.790  89.664 115.531  0.00  0.00     0.381 N 
ATOM     19  H   LIG d   1      -5.033  89.430 114.920  0.00  0.00    -0.090 HD
ATOM     20  H   LIG d   1      -6.591  89.891 114.968  0.00  0.00    -0.090 HD
ATOM     21  H   LIG d   1      -5.999  88.892 116.124  0.00  0.00    -0.090 HD
ENDBRANCH   5  18
BRANCH   3  22
ATOM     22  C   LIG d   1      -7.442  93.613 117.680  0.00  0.00     0.382 C 
ATOM     23  O   LIG d   1      -7.054  94.789 117.882  0.00  0.00    -0.241 OA
ATOM     24  O   LIG d   1      -8.656  93.386 117.522  0.00  0.00    -0.241 OA
ENDBRANCH   3  22
TORSDOF 7
ENDMDL
