MODEL 1
REMARK VINA RESULT:      -6.0      0.000      0.000
REMARK  7 active torsions:
REMARK  status: ('A' for Active; 'I' for Inactive)
REMARK    1  A    between atoms: C_2  and  C_3 
REMARK    2  A    between atoms: C_3  and  O_6 
REMARK    3  A    between atoms: C_3  and  C_4 
REMARK    4  A    between atoms: C_7  and  O_6 
REMARK    5  A    between atoms: C_9  and  C_10 
REMARK    6  A    between atoms: N_15  and  C_14 
REMARK    7  A    between atoms: N_20  and  C_19 
REMARK       I    between atoms: C_22  and  N_20 
ROOT
ATOM      1  C   LIG d   1      -7.918  75.911 117.890  0.00  0.00     0.161 C 
ATOM      2  C   LIG d   1      -9.014  76.704 118.270  0.00  0.00     0.016 C 
ATOM      3  C   LIG d   1      -8.967  78.115 118.336  0.00  0.00     0.038 C 
ATOM      4  C   LIG d   1      -7.859  78.843 117.877  0.00  0.00     0.028 C 
ATOM      5  C   LIG d   1      -6.549  78.067 117.960  0.00  0.00    -0.047 C 
ATOM      6  C   LIG d   1      -6.735  76.692 117.280  0.00  0.00     0.091 C 
ENDROOT
BRANCH   1   7
ATOM      7  O   LIG d   1      -8.354  74.875 116.987  0.00  0.00    -0.368 OA
BRANCH   7   8
ATOM      8  C   LIG d   1      -8.546  73.562 117.568  0.00  0.00     0.119 C 
BRANCH   8   9
ATOM      9  C   LIG d   1      -7.483  72.627 116.958  0.00  0.00     0.028 C 
ATOM     10  C   LIG d   1      -8.058  71.249 116.586  0.00  0.00     0.006 C 
ENDBRANCH   8   9
BRANCH   8  11
ATOM     11  C   LIG d   1      -9.895  72.964 117.159  0.00  0.00     0.028 C 
ATOM     12  C   LIG d   1     -10.812  73.982 116.464  0.00  0.00     0.006 C 
ENDBRANCH   8  11
ENDBRANCH   7   8
ENDBRANCH   1   7
BRANCH   6  13
ATOM     13  N   LIG d   1      -5.526  75.835 117.390  0.00  0.00    -0.311 N 
ATOM     14  C   LIG d   1      -4.930  75.268 116.343  0.00  0.00     0.210 C 
ATOM     15  C   LIG d   1      -3.709  74.408 116.680  0.00  0.00     0.109 C 
ATOM     16  O   LIG d   1      -5.279  75.422 115.162  0.00  0.00    -0.276 OA
ATOM     17  H   LIG d   1      -5.157  75.683 118.309  0.00  0.00     0.149 HD
ENDBRANCH   6  13
BRANCH   5  18
ATOM     18  N   LIG d   1      -5.502  78.890 117.325  0.00  0.00     0.381 N 
ATOM     19  H   LIG d   1      -5.721  79.028 116.358  0.00  0.00    -0.090 HD
ATOM     20  H   LIG d   1      -4.625  78.403 117.383  0.00  0.00    -0.090 HD
ATOM     21  H   LIG d   1      -5.433  79.770 117.786  0.00  0.00    -0.090 HD
ENDBRANCH   5  18
BRANCH   3  22
ATOM     22  C   LIG d   1     -10.024  78.812 118.902  0.00  0.00     0.382 C 
ATOM     23  O   LIG d   1      -9.812  79.895 119.499  0.00  0.00    -0.241 OA
ATOM     24  O   LIG d   1     -11.179  78.349 118.862  0.00  0.00    -0.241 OA
ENDBRANCH   3  22
TORSDOF 7
ENDMDL
MODEL 2
REMARK VINA RESULT:      -5.7      0.951      1.301
REMARK  7 active torsions:
REMARK  status: ('A' for Active; 'I' for Inactive)
REMARK    1  A    between atoms: C_2  and  C_3 
REMARK    2  A    between atoms: C_3  and  O_6 
REMARK    3  A    between atoms: C_3  and  C_4 
REMARK    4  A    between atoms: C_7  and  O_6 
REMARK    5  A    between atoms: C_9  and  C_10 
REMARK    6  A    between atoms: N_15  and  C_14 
REMARK    7  A    between atoms: N_20  and  C_19 
REMARK       I    between atoms: C_22  and  N_20 
ROOT
ATOM      1  C   LIG d   1      -7.730  76.500 117.897  0.00  0.00     0.161 C 
ATOM      2  C   LIG d   1      -8.929  77.129 118.268  0.00  0.00     0.016 C 
ATOM      3  C   LIG d   1      -9.066  78.531 118.395  0.00  0.00     0.038 C 
ATOM      4  C   LIG d   1      -8.045  79.413 118.011  0.00  0.00     0.028 C 
ATOM      5  C   LIG d   1      -6.650  78.806 118.111  0.00  0.00    -0.047 C 
ATOM      6  C   LIG d   1      -6.637  77.452 117.366  0.00  0.00     0.091 C 
ENDROOT
BRANCH   1   7
ATOM      7  O   LIG d   1      -8.000  75.461 116.934  0.00  0.00    -0.368 OA
BRANCH   7   8
ATOM      8  C   LIG d   1      -8.545  74.228 117.464  0.00  0.00     0.119 C 
BRANCH   8   9
ATOM      9  C   LIG d   1      -7.600  73.086 117.042  0.00  0.00     0.028 C 
ATOM     10  C   LIG d   1      -6.518  73.554 116.055  0.00  0.00     0.006 C 
ENDBRANCH   8   9
BRANCH   8  11
ATOM     11  C   LIG d   1      -9.896  73.895 116.823  0.00  0.00     0.028 C 
ATOM     12  C   LIG d   1     -10.355  72.457 117.115  0.00  0.00     0.006 C 
ENDBRANCH   8  11
ENDBRANCH   7   8
ENDBRANCH   1   7
BRANCH   6  13
ATOM     13  N   LIG d   1      -5.332  76.750 117.486  0.00  0.00    -0.311 N 
ATOM     14  C   LIG d   1      -4.491  76.588 116.467  0.00  0.00     0.210 C 
ATOM     15  C   LIG d   1      -3.209  75.818 116.803  0.00  0.00     0.109 C 
ATOM     16  O   LIG d   1      -4.668  77.036 115.325  0.00  0.00    -0.276 OA
ATOM     17  H   LIG d   1      -5.094  76.382 118.386  0.00  0.00     0.149 HD
ENDBRANCH   6  13
BRANCH   5  18
ATOM     18  N   LIG d   1      -5.697  79.783 117.551  0.00  0.00     0.381 N 
ATOM     19  H   LIG d   1      -4.790  79.636 117.947  0.00  0.00    -0.090 HD
ATOM     20  H   LIG d   1      -6.001  80.709 117.794  0.00  0.00    -0.090 HD
ATOM     21  H   LIG d   1      -5.654  79.688 116.561  0.00  0.00    -0.090 HD
ENDBRANCH   5  18
BRANCH   3  22
ATOM     22  C   LIG d   1     -10.220  79.061 118.950  0.00  0.00     0.382 C 
ATOM     23  O   LIG d   1     -11.275  78.383 118.970  0.00  0.00    -0.241 OA
ATOM     24  O   LIG d   1     -10.232  80.227 119.391  0.00  0.00    -0.241 OA
ENDBRANCH   3  22
TORSDOF 7
ENDMDL
MODEL 3
REMARK VINA RESULT:      -5.6      2.229      3.206
REMARK  7 active torsions:
REMARK  status: ('A' for Active; 'I' for Inactive)
REMARK    1  A    between atoms: C_2  and  C_3 
REMARK    2  A    between atoms: C_3  and  O_6 
REMARK    3  A    between atoms: C_3  and  C_4 
REMARK    4  A    between atoms: C_7  and  O_6 
REMARK    5  A    between atoms: C_9  and  C_10 
REMARK    6  A    between atoms: N_15  and  C_14 
REMARK    7  A    between atoms: N_20  and  C_19 
REMARK       I    between atoms: C_22  and  N_20 
ROOT
ATOM      1  C   LIG d   1      -6.958  78.203 117.829  0.00  0.00     0.161 C 
ATOM      2  C   LIG d   1      -8.340  78.155 118.074  0.00  0.00     0.016 C 
ATOM      3  C   LIG d   1      -9.103  79.284 118.453  0.00  0.00     0.038 C 
ATOM      4  C   LIG d   1      -8.559  80.577 118.465  0.00  0.00     0.028 C 
ATOM      5  C   LIG d   1      -7.054  80.598 118.715  0.00  0.00    -0.047 C 
ATOM      6  C   LIG d   1      -6.368  79.626 117.728  0.00  0.00     0.091 C 
ENDROOT
BRANCH   1   7
ATOM      7  O   LIG d   1      -6.646  77.447 116.642  0.00  0.00    -0.368 OA
BRANCH   7   8
ATOM      8  C   LIG d   1      -6.720  76.005 116.768  0.00  0.00     0.119 C 
BRANCH   8   9
ATOM      9  C   LIG d   1      -5.428  75.421 116.164  0.00  0.00     0.028 C 
ATOM     10  C   LIG d   1      -5.711  74.404 115.045  0.00  0.00     0.006 C 
ENDBRANCH   8   9
BRANCH   8  11
ATOM     11  C   LIG d   1      -7.860  75.430 115.922  0.00  0.00     0.028 C 
ATOM     12  C   LIG d   1      -9.008  74.866 116.773  0.00  0.00     0.006 C 
ENDBRANCH   8  11
ENDBRANCH   7   8
ENDBRANCH   1   7
BRANCH   6  13
ATOM     13  N   LIG d   1      -4.904  79.523 117.961  0.00  0.00    -0.311 N 
ATOM     14  C   LIG d   1      -3.994  79.749 117.015  0.00  0.00     0.210 C 
ATOM     15  C   LIG d   1      -2.539  79.569 117.461  0.00  0.00     0.109 C 
ATOM     16  O   LIG d   1      -4.252  80.114 115.858  0.00  0.00    -0.276 OA
ATOM     17  H   LIG d   1      -4.605  79.262 118.880  0.00  0.00     0.149 HD
ENDBRANCH   6  13
BRANCH   5  18
ATOM     18  N   LIG d   1      -6.598  81.993 118.564  0.00  0.00     0.381 N 
ATOM     19  H   LIG d   1      -7.386  82.608 118.552  0.00  0.00    -0.090 HD
ATOM     20  H   LIG d   1      -6.114  82.083 117.688  0.00  0.00    -0.090 HD
ATOM     21  H   LIG d   1      -5.989  82.235 119.314  0.00  0.00    -0.090 HD
ENDBRANCH   5  18
BRANCH   3  22
ATOM     22  C   LIG d   1     -10.417  79.119 118.864  0.00  0.00     0.382 C 
ATOM     23  O   LIG d   1     -11.047  78.081 118.547  0.00  0.00    -0.241 OA
ATOM     24  O   LIG d   1     -10.994  80.014 119.510  0.00  0.00    -0.241 OA
ENDBRANCH   3  22
TORSDOF 7
ENDMDL
MODEL 4
REMARK VINA RESULT:      -5.3     13.993     15.904
REMARK  7 active torsions:
REMARK  status: ('A' for Active; 'I' for Inactive)
REMARK    1  A    between atoms: C_2  and  C_3 
REMARK    2  A    between atoms: C_3  and  O_6 
REMARK    3  A    between atoms: C_3  and  C_4 
REMARK    4  A    between atoms: C_7  and  O_6 
REMARK    5  A    between atoms: C_9  and  C_10 
REMARK    6  A    between atoms: N_15  and  C_14 
REMARK    7  A    between atoms: N_20  and  C_19 
REMARK       I    between atoms: C_22  and  N_20 
ROOT
ATOM      1  C   LIG d   1      -4.323  90.479 118.357  0.00  0.00     0.161 C 
ATOM      2  C   LIG d   1      -5.086  89.756 117.424  0.00  0.00     0.016 C 
ATOM      3  C   LIG d   1      -6.237  90.277 116.790  0.00  0.00     0.038 C 
ATOM      4  C   LIG d   1      -6.619  91.620 116.932  0.00  0.00     0.028 C 
ATOM      5  C   LIG d   1      -6.172  92.240 118.252  0.00  0.00    -0.047 C 
ATOM      6  C   LIG d   1      -4.660  91.983 118.441  0.00  0.00     0.091 C 
ENDROOT
BRANCH   1   7
ATOM      7  O   LIG d   1      -2.919  90.294 118.088  0.00  0.00    -0.368 OA
BRANCH   7   8
ATOM      8  C   LIG d   1      -2.456  88.923 118.034  0.00  0.00     0.119 C 
BRANCH   8   9
ATOM      9  C   LIG d   1      -2.411  88.392 119.481  0.00  0.00     0.028 C 
ATOM     10  C   LIG d   1      -1.653  89.336 120.429  0.00  0.00     0.006 C 
ENDBRANCH   8   9
BRANCH   8  11
ATOM     11  C   LIG d   1      -1.013  88.841 117.528  0.00  0.00     0.028 C 
ATOM     12  C   LIG d   1      -0.509  90.173 116.949  0.00  0.00     0.006 C 
ENDBRANCH   8  11
ENDBRANCH   7   8
ENDBRANCH   1   7
BRANCH   6  13
ATOM     13  N   LIG d   1      -4.159  92.483 119.747  0.00  0.00    -0.311 N 
ATOM     14  C   LIG d   1      -3.137  93.329 119.865  0.00  0.00     0.210 C 
ATOM     15  C   LIG d   1      -2.769  93.703 121.305  0.00  0.00     0.109 C 
ATOM     16  O   LIG d   1      -2.520  93.831 118.913  0.00  0.00    -0.276 OA
ATOM     17  H   LIG d   1      -4.622  92.152 120.571  0.00  0.00     0.149 HD
ENDBRANCH   6  13
BRANCH   5  18
ATOM     18  N   LIG d   1      -6.514  93.674 118.209  0.00  0.00     0.381 N 
ATOM     19  H   LIG d   1      -7.275  93.860 118.831  0.00  0.00    -0.090 HD
ATOM     20  H   LIG d   1      -6.804  93.911 117.276  0.00  0.00    -0.090 HD
ATOM     21  H   LIG d   1      -5.723  94.221 118.467  0.00  0.00    -0.090 HD
ENDBRANCH   5  18
BRANCH   3  22
ATOM     22  C   LIG d   1      -7.043  89.440 116.033  0.00  0.00     0.382 C 
ATOM     23  O   LIG d   1      -8.136  89.036 116.495  0.00  0.00    -0.241 OA
ATOM     24  O   LIG d   1      -6.669  89.049 114.911  0.00  0.00    -0.241 OA
ENDBRANCH   3  22
TORSDOF 7
ENDMDL
MODEL 5
REMARK VINA RESULT:      -5.3     12.224     14.942
REMARK  7 active torsions:
REMARK  status: ('A' for Active; 'I' for Inactive)
REMARK    1  A    between atoms: C_2  and  C_3 
REMARK    2  A    between atoms: C_3  and  O_6 
REMARK    3  A    between atoms: C_3  and  C_4 
REMARK    4  A    between atoms: C_7  and  O_6 
REMARK    5  A    between atoms: C_9  and  C_10 
REMARK    6  A    between atoms: N_15  and  C_14 
REMARK    7  A    between atoms: N_20  and  C_19 
REMARK       I    between atoms: C_22  and  N_20 
ROOT
ATOM      1  C   LIG d   1     -16.720  64.524 115.737  0.00  0.00     0.161 C 
ATOM      2  C   LIG d   1     -16.652  65.836 115.239  0.00  0.00     0.016 C 
ATOM      3  C   LIG d   1     -16.077  66.911 115.954  0.00  0.00     0.038 C 
ATOM      4  C   LIG d   1     -15.389  66.715 117.161  0.00  0.00     0.028 C 
ATOM      5  C   LIG d   1     -15.872  65.497 117.942  0.00  0.00    -0.047 C 
ATOM      6  C   LIG d   1     -15.876  64.269 117.004  0.00  0.00     0.091 C 
ENDROOT
BRANCH   1   7
ATOM      7  O   LIG d   1     -16.362  63.589 114.700  0.00  0.00    -0.368 OA
BRANCH   7   8
ATOM      8  C   LIG d   1     -17.457  62.851 114.103  0.00  0.00     0.119 C 
BRANCH   8   9
ATOM      9  C   LIG d   1     -18.762  63.351 114.752  0.00  0.00     0.028 C 
ATOM     10  C   LIG d   1     -19.717  63.991 113.730  0.00  0.00     0.006 C 
ENDBRANCH   8   9
BRANCH   8  11
ATOM     11  C   LIG d   1     -17.378  61.361 114.448  0.00  0.00     0.028 C 
ATOM     12  C   LIG d   1     -18.442  60.929 115.469  0.00  0.00     0.006 C 
ENDBRANCH   8  11
ENDBRANCH   7   8
ENDBRANCH   1   7
BRANCH   6  13
ATOM     13  N   LIG d   1     -16.415  63.052 117.666  0.00  0.00    -0.311 N 
ATOM     14  C   LIG d   1     -15.669  61.992 117.970  0.00  0.00     0.210 C 
ATOM     15  C   LIG d   1     -16.427  60.836 118.631  0.00  0.00     0.109 C 
ATOM     16  O   LIG d   1     -14.445  61.912 117.785  0.00  0.00    -0.276 OA
ATOM     17  H   LIG d   1     -17.393  63.045 117.880  0.00  0.00     0.149 HD
ENDBRANCH   6  13
BRANCH   5  18
ATOM     18  N   LIG d   1     -14.980  65.332 119.106  0.00  0.00     0.381 N 
ATOM     19  H   LIG d   1     -14.035  65.523 118.838  0.00  0.00    -0.090 HD
ATOM     20  H   LIG d   1     -15.033  64.380 119.423  0.00  0.00    -0.090 HD
ATOM     21  H   LIG d   1     -15.257  65.950 119.837  0.00  0.00    -0.090 HD
ENDBRANCH   5  18
BRANCH   3  22
ATOM     22  C   LIG d   1     -16.221  68.207 115.481  0.00  0.00     0.382 C 
ATOM     23  O   LIG d   1     -16.516  69.134 116.273  0.00  0.00    -0.241 OA
ATOM     24  O   LIG d   1     -16.102  68.452 114.266  0.00  0.00    -0.241 OA
ENDBRANCH   3  22
TORSDOF 7
ENDMDL
MODEL 6
REMARK VINA RESULT:      -5.3     14.273     16.979
REMARK  7 active torsions:
REMARK  status: ('A' for Active; 'I' for Inactive)
REMARK    1  A    between atoms: C_2  and  C_3 
REMARK    2  A    between atoms: C_3  and  O_6 
REMARK    3  A    between atoms: C_3  and  C_4 
REMARK    4  A    between atoms: C_7  and  O_6 
REMARK    5  A    between atoms: C_9  and  C_10 
REMARK    6  A    between atoms: N_15  and  C_14 
REMARK    7  A    between atoms: N_20  and  C_19 
REMARK       I    between atoms: C_22  and  N_20 
ROOT
ATOM      1  C   LIG d   1      -5.020  91.489 119.143  0.00  0.00     0.161 C 
ATOM      2  C   LIG d   1      -5.418  90.474 118.258  0.00  0.00     0.016 C 
ATOM      3  C   LIG d   1      -6.357  90.670 117.220  0.00  0.00     0.038 C 
ATOM      4  C   LIG d   1      -6.851  91.943 116.898  0.00  0.00     0.028 C 
ATOM      5  C   LIG d   1      -6.864  92.904 118.082  0.00  0.00    -0.047 C 
ATOM      6  C   LIG d   1      -5.464  92.910 118.738  0.00  0.00     0.091 C 
ENDROOT
BRANCH   1   7
ATOM      7  O   LIG d   1      -3.591  91.445 119.327  0.00  0.00    -0.368 OA
BRANCH   7   8
ATOM      8  C   LIG d   1      -2.808  91.105 118.156  0.00  0.00     0.119 C 
BRANCH   8   9
ATOM      9  C   LIG d   1      -1.753  90.069 118.590  0.00  0.00     0.028 C 
ATOM     10  C   LIG d   1      -2.378  88.856 119.298  0.00  0.00     0.006 C 
ENDBRANCH   8   9
BRANCH   8  11
ATOM     11  C   LIG d   1      -2.010  92.310 117.650  0.00  0.00     0.028 C 
ATOM     12  C   LIG d   1      -1.852  93.409 118.713  0.00  0.00     0.006 C 
ENDBRANCH   8  11
ENDBRANCH   7   8
ENDBRANCH   1   7
BRANCH   6  13
ATOM     13  N   LIG d   1      -5.413  93.761 119.956  0.00  0.00    -0.311 N 
ATOM     14  C   LIG d   1      -5.075  95.050 119.936  0.00  0.00     0.210 C 
ATOM     15  C   LIG d   1      -5.066  95.737 121.305  0.00  0.00     0.109 C 
ATOM     16  O   LIG d   1      -4.814  95.697 118.911  0.00  0.00    -0.276 OA
ATOM     17  H   LIG d   1      -5.641  93.325 120.827  0.00  0.00     0.149 HD
ENDBRANCH   6  13
BRANCH   5  18
ATOM     18  N   LIG d   1      -7.271  94.229 117.576  0.00  0.00     0.381 N 
ATOM     19  H   LIG d   1      -7.244  94.898 118.319  0.00  0.00    -0.090 HD
ATOM     20  H   LIG d   1      -8.215  94.172 117.238  0.00  0.00    -0.090 HD
ATOM     21  H   LIG d   1      -6.663  94.514 116.840  0.00  0.00    -0.090 HD
ENDBRANCH   5  18
BRANCH   3  22
ATOM     22  C   LIG d   1      -6.841  89.579 116.515  0.00  0.00     0.382 C 
ATOM     23  O   LIG d   1      -7.990  89.137 116.755  0.00  0.00    -0.241 OA
ATOM     24  O   LIG d   1      -6.126  89.002 115.673  0.00  0.00    -0.241 OA
ENDBRANCH   3  22
TORSDOF 7
ENDMDL
MODEL 7
REMARK VINA RESULT:      -5.1      2.442      6.649
REMARK  7 active torsions:
REMARK  status: ('A' for Active; 'I' for Inactive)
REMARK    1  A    between atoms: C_2  and  C_3 
REMARK    2  A    between atoms: C_3  and  O_6 
REMARK    3  A    between atoms: C_3  and  C_4 
REMARK    4  A    between atoms: C_7  and  O_6 
REMARK    5  A    between atoms: C_9  and  C_10 
REMARK    6  A    between atoms: N_15  and  C_14 
REMARK    7  A    between atoms: N_20  and  C_19 
REMARK       I    between atoms: C_22  and  N_20 
ROOT
ATOM      1  C   LIG d   1      -6.635  77.655 117.493  0.00  0.00     0.161 C 
ATOM      2  C   LIG d   1      -5.866  77.051 116.483  0.00  0.00     0.016 C 
ATOM      3  C   LIG d   1      -6.280  75.901 115.773  0.00  0.00     0.038 C 
ATOM      4  C   LIG d   1      -7.566  75.361 115.921  0.00  0.00     0.028 C 
ATOM      5  C   LIG d   1      -8.183  75.632 117.289  0.00  0.00    -0.047 C 
ATOM      6  C   LIG d   1      -8.088  77.145 117.591  0.00  0.00     0.091 C 
ENDROOT
BRANCH   1   7
ATOM      7  O   LIG d   1      -6.615  79.087 117.332  0.00  0.00    -0.368 OA
BRANCH   7   8
ATOM      8  C   LIG d   1      -5.964  79.838 118.386  0.00  0.00     0.119 C 
BRANCH   8   9
ATOM      9  C   LIG d   1      -7.021  80.768 119.012  0.00  0.00     0.028 C 
ATOM     10  C   LIG d   1      -8.172  81.086 118.043  0.00  0.00     0.006 C 
ENDBRANCH   8   9
BRANCH   8  11
ATOM     11  C   LIG d   1      -4.887  80.770 117.822  0.00  0.00     0.028 C 
ATOM     12  C   LIG d   1      -3.819  81.144 118.862  0.00  0.00     0.006 C 
ENDBRANCH   8  11
ENDBRANCH   7   8
ENDBRANCH   1   7
BRANCH   6  13
ATOM     13  N   LIG d   1      -8.593  77.486 118.947  0.00  0.00    -0.311 N 
ATOM     14  C   LIG d   1      -9.836  77.904 119.182  0.00  0.00     0.210 C 
ATOM     15  C   LIG d   1     -10.144  78.220 120.649  0.00  0.00     0.109 C 
ATOM     16  O   LIG d   1     -10.721  78.013 118.320  0.00  0.00    -0.276 OA
ATOM     17  H   LIG d   1      -7.950  77.396 119.709  0.00  0.00     0.149 HD
ENDBRANCH   6  13
BRANCH   5  18
ATOM     18  N   LIG d   1      -9.572  75.135 117.258  0.00  0.00     0.381 N 
ATOM     19  H   LIG d   1      -9.987  75.233 118.163  0.00  0.00    -0.090 HD
ATOM     20  H   LIG d   1      -9.562  74.159 117.019  0.00  0.00    -0.090 HD
ATOM     21  H   LIG d   1     -10.101  75.645 116.585  0.00  0.00    -0.090 HD
ENDBRANCH   5  18
BRANCH   3  22
ATOM     22  C   LIG d   1      -5.387  75.255 114.932  0.00  0.00     0.382 C 
ATOM     23  O   LIG d   1      -4.363  75.855 114.525  0.00  0.00    -0.241 OA
ATOM     24  O   LIG d   1      -5.615  74.095 114.539  0.00  0.00    -0.241 OA
ENDBRANCH   3  22
TORSDOF 7
ENDMDL
MODEL 8
REMARK VINA RESULT:      -5.0      1.988      5.106
REMARK  7 active torsions:
REMARK  status: ('A' for Active; 'I' for Inactive)
REMARK    1  A    between atoms: C_2  and  C_3 
REMARK    2  A    between atoms: C_3  and  O_6 
REMARK    3  A    between atoms: C_3  and  C_4 
REMARK    4  A    between atoms: C_7  and  O_6 
REMARK    5  A    between atoms: C_9  and  C_10 
REMARK    6  A    between atoms: N_15  and  C_14 
REMARK    7  A    between atoms: N_20  and  C_19 
REMARK       I    between atoms: C_22  and  N_20 
ROOT
ATOM      1  C   LIG d   1      -8.194  76.532 117.395  0.00  0.00     0.161 C 
ATOM      2  C   LIG d   1      -9.165  75.517 117.438  0.00  0.00     0.016 C 
ATOM      3  C   LIG d   1      -8.884  74.159 117.166  0.00  0.00     0.038 C 
ATOM      4  C   LIG d   1      -7.573  73.696 116.977  0.00  0.00     0.028 C 
ATOM      5  C   LIG d   1      -6.629  74.759 116.426  0.00  0.00    -0.047 C 
ATOM      6  C   LIG d   1      -6.738  76.029 117.300  0.00  0.00     0.091 C 
ENDROOT
BRANCH   1   7
ATOM      7  O   LIG d   1      -8.349  77.406 118.530  0.00  0.00    -0.368 OA
BRANCH   7   8
ATOM      8  C   LIG d   1      -9.048  78.651 118.284  0.00  0.00     0.119 C 
BRANCH   8   9
ATOM      9  C   LIG d   1      -8.272  79.768 119.009  0.00  0.00     0.028 C 
ATOM     10  C   LIG d   1      -7.398  80.593 118.049  0.00  0.00     0.006 C 
ENDBRANCH   8   9
BRANCH   8  11
ATOM     11  C   LIG d   1     -10.440  78.645 118.923  0.00  0.00     0.028 C 
ATOM     12  C   LIG d   1     -10.721  79.907 119.753  0.00  0.00     0.006 C 
ENDBRANCH   8  11
ENDBRANCH   7   8
ENDBRANCH   1   7
BRANCH   6  13
ATOM     13  N   LIG d   1      -5.909  77.148 116.781  0.00  0.00    -0.311 N 
ATOM     14  C   LIG d   1      -5.000  77.789 117.514  0.00  0.00     0.210 C 
ATOM     15  C   LIG d   1      -4.270  78.925 116.790  0.00  0.00     0.109 C 
ATOM     16  O   LIG d   1      -4.706  77.504 118.684  0.00  0.00    -0.276 OA
ATOM     17  H   LIG d   1      -6.060  77.425 115.830  0.00  0.00     0.149 HD
ENDBRANCH   6  13
BRANCH   5  18
ATOM     18  N   LIG d   1      -5.270  74.184 116.409  0.00  0.00     0.381 N 
ATOM     19  H   LIG d   1      -4.651  74.791 115.911  0.00  0.00    -0.090 HD
ATOM     20  H   LIG d   1      -5.298  73.300 115.932  0.00  0.00    -0.090 HD
ATOM     21  H   LIG d   1      -4.943  74.056 117.341  0.00  0.00    -0.090 HD
ENDBRANCH   5  18
BRANCH   3  22
ATOM     22  C   LIG d   1      -9.926  73.253 117.040  0.00  0.00     0.382 C 
ATOM     23  O   LIG d   1     -11.078  73.659 116.752  0.00  0.00    -0.241 OA
ATOM     24  O   LIG d   1      -9.739  72.040 117.253  0.00  0.00    -0.241 OA
ENDBRANCH   3  22
TORSDOF 7
ENDMDL
MODEL 9
REMARK VINA RESULT:      -5.0      2.722      6.881
REMARK  7 active torsions:
REMARK  status: ('A' for Active; 'I' for Inactive)
REMARK    1  A    between atoms: C_2  and  C_3 
REMARK    2  A    between atoms: C_3  and  O_6 
REMARK    3  A    between atoms: C_3  and  C_4 
REMARK    4  A    between atoms: C_7  and  O_6 
REMARK    5  A    between atoms: C_9  and  C_10 
REMARK    6  A    between atoms: N_15  and  C_14 
REMARK    7  A    between atoms: N_20  and  C_19 
REMARK       I    between atoms: C_22  and  N_20 
ROOT
ATOM      1  C   LIG d   1      -5.531  77.705 117.238  0.00  0.00     0.161 C 
ATOM      2  C   LIG d   1      -4.975  76.733 116.390  0.00  0.00     0.016 C 
ATOM      3  C   LIG d   1      -5.707  75.639 115.875  0.00  0.00     0.038 C 
ATOM      4  C   LIG d   1      -7.094  75.525 116.052  0.00  0.00     0.028 C 
ATOM      5  C   LIG d   1      -7.601  76.208 117.318  0.00  0.00    -0.047 C 
ATOM      6  C   LIG d   1      -7.070  77.659 117.352  0.00  0.00     0.091 C 
ENDROOT
BRANCH   1   7
ATOM      7  O   LIG d   1      -5.099  79.017 116.827  0.00  0.00    -0.368 OA
BRANCH   7   8
ATOM      8  C   LIG d   1      -4.037  79.613 117.613  0.00  0.00     0.119 C 
BRANCH   8   9
ATOM      9  C   LIG d   1      -4.566  80.950 118.167  0.00  0.00     0.028 C 
ATOM     10  C   LIG d   1      -3.706  81.488 119.323  0.00  0.00     0.006 C 
ENDBRANCH   8   9
BRANCH   8  11
ATOM     11  C   LIG d   1      -2.837  79.984 116.737  0.00  0.00     0.028 C 
ATOM     12  C   LIG d   1      -3.113  79.797 115.237  0.00  0.00     0.006 C 
ENDBRANCH   8  11
ENDBRANCH   7   8
ENDBRANCH   1   7
BRANCH   6  13
ATOM     13  N   LIG d   1      -7.449  78.373 118.599  0.00  0.00    -0.311 N 
ATOM     14  C   LIG d   1      -8.006  79.583 118.611  0.00  0.00     0.210 C 
ATOM     15  C   LIG d   1      -8.301  80.145 120.005  0.00  0.00     0.109 C 
ATOM     16  O   LIG d   1      -8.314  80.230 117.599  0.00  0.00    -0.276 OA
ATOM     17  H   LIG d   1      -7.264  77.907 119.466  0.00  0.00     0.149 HD
ENDBRANCH   6  13
BRANCH   5  18
ATOM     18  N   LIG d   1      -9.074  76.131 117.306  0.00  0.00     0.381 N 
ATOM     19  H   LIG d   1      -9.427  76.533 116.461  0.00  0.00    -0.090 HD
ATOM     20  H   LIG d   1      -9.433  76.661 118.081  0.00  0.00    -0.090 HD
ATOM     21  H   LIG d   1      -9.366  75.182 117.379  0.00  0.00    -0.090 HD
ENDBRANCH   5  18
BRANCH   3  22
ATOM     22  C   LIG d   1      -5.043  74.622 115.206  0.00  0.00     0.382 C 
ATOM     23  O   LIG d   1      -5.659  73.910 114.377  0.00  0.00    -0.241 OA
ATOM     24  O   LIG d   1      -3.847  74.378 115.455  0.00  0.00    -0.241 OA
ENDBRANCH   3  22
TORSDOF 7
ENDMDL
