MODEL 1
REMARK VINA RESULT:      -5.7      0.000      0.000
REMARK  7 active torsions:
REMARK  status: ('A' for Active; 'I' for Inactive)
REMARK    1  A    between atoms: C_2  and  C_3 
REMARK    2  A    between atoms: C_3  and  O_6 
REMARK    3  A    between atoms: C_3  and  C_4 
REMARK    4  A    between atoms: C_7  and  O_6 
REMARK    5  A    between atoms: C_9  and  C_10 
REMARK    6  A    between atoms: N_15  and  C_14 
REMARK    7  A    between atoms: N_20  and  C_19 
REMARK       I    between atoms: C_22  and  N_20 
ROOT
ATOM      1  C   LIG d   1      -7.628  75.145 116.263  0.00  0.00     0.161 C 
ATOM      2  C   LIG d   1      -6.504  75.000 115.433  0.00  0.00     0.016 C 
ATOM      3  C   LIG d   1      -5.452  75.943 115.376  0.00  0.00     0.038 C 
ATOM      4  C   LIG d   1      -5.380  77.027 116.262  0.00  0.00     0.028 C 
ATOM      5  C   LIG d   1      -6.742  77.488 116.769  0.00  0.00    -0.047 C 
ATOM      6  C   LIG d   1      -7.512  76.265 117.318  0.00  0.00     0.091 C 
ENDROOT
BRANCH   1   7
ATOM      7  O   LIG d   1      -7.931  73.887 116.899  0.00  0.00    -0.368 OA
BRANCH   7   8
ATOM      8  C   LIG d   1      -8.760  72.973 116.140  0.00  0.00     0.119 C 
BRANCH   8   9
ATOM      9  C   LIG d   1     -10.120  72.877 116.858  0.00  0.00     0.028 C 
ATOM     10  C   LIG d   1     -11.068  74.026 116.476  0.00  0.00     0.006 C 
ENDBRANCH   8   9
BRANCH   8  11
ATOM     11  C   LIG d   1      -8.188  71.552 116.163  0.00  0.00     0.028 C 
ATOM     12  C   LIG d   1      -8.958  70.615 117.108  0.00  0.00     0.006 C 
ENDBRANCH   8  11
ENDBRANCH   7   8
ENDBRANCH   1   7
BRANCH   6  13
ATOM     13  N   LIG d   1      -8.889  76.613 117.757  0.00  0.00    -0.311 N 
ATOM     14  C   LIG d   1      -9.201  76.922 119.014  0.00  0.00     0.210 C 
ATOM     15  C   LIG d   1     -10.682  77.229 119.256  0.00  0.00     0.109 C 
ATOM     16  O   LIG d   1      -8.387  77.003 119.946  0.00  0.00    -0.276 OA
ATOM     17  H   LIG d   1      -9.607  76.603 117.059  0.00  0.00     0.149 HD
ENDBRANCH   6  13
BRANCH   5  18
ATOM     18  N   LIG d   1      -6.510  78.530 117.787  0.00  0.00     0.381 N 
ATOM     19  H   LIG d   1      -7.115  78.380 118.569  0.00  0.00    -0.090 HD
ATOM     20  H   LIG d   1      -6.727  79.427 117.389  0.00  0.00    -0.090 HD
ATOM     21  H   LIG d   1      -5.560  78.511 118.084  0.00  0.00    -0.090 HD
ENDBRANCH   5  18
BRANCH   3  22
ATOM     22  C   LIG d   1      -4.478  75.827 114.396  0.00  0.00     0.382 C 
ATOM     23  O   LIG d   1      -3.419  75.198 114.636  0.00  0.00    -0.241 OA
ATOM     24  O   LIG d   1      -4.625  76.380 113.290  0.00  0.00    -0.241 OA
ENDBRANCH   3  22
TORSDOF 7
ENDMDL
MODEL 2
REMARK VINA RESULT:      -5.6      1.714      4.904
REMARK  7 active torsions:
REMARK  status: ('A' for Active; 'I' for Inactive)
REMARK    1  A    between atoms: C_2  and  C_3 
REMARK    2  A    between atoms: C_3  and  O_6 
REMARK    3  A    between atoms: C_3  and  C_4 
REMARK    4  A    between atoms: C_7  and  O_6 
REMARK    5  A    between atoms: C_9  and  C_10 
REMARK    6  A    between atoms: N_15  and  C_14 
REMARK    7  A    between atoms: N_20  and  C_19 
REMARK       I    between atoms: C_22  and  N_20 
ROOT
ATOM      1  C   LIG d   1      -8.225  75.289 117.479  0.00  0.00     0.161 C 
ATOM      2  C   LIG d   1      -9.490  75.645 117.975  0.00  0.00     0.016 C 
ATOM      3  C   LIG d   1      -9.850  76.970 118.309  0.00  0.00     0.038 C 
ATOM      4  C   LIG d   1      -9.013  78.060 118.025  0.00  0.00     0.028 C 
ATOM      5  C   LIG d   1      -7.533  77.694 117.992  0.00  0.00    -0.047 C 
ATOM      6  C   LIG d   1      -7.337  76.478 117.058  0.00  0.00     0.091 C 
ENDROOT
BRANCH   1   7
ATOM      7  O   LIG d   1      -8.372  74.362 116.385  0.00  0.00    -0.368 OA
BRANCH   7   8
ATOM      8  C   LIG d   1      -8.367  72.956 116.736  0.00  0.00     0.119 C 
BRANCH   8   9
ATOM      9  C   LIG d   1      -7.543  72.215 115.666  0.00  0.00     0.028 C 
ATOM     10  C   LIG d   1      -6.338  73.038 115.179  0.00  0.00     0.006 C 
ENDBRANCH   8   9
BRANCH   8  11
ATOM     11  C   LIG d   1      -9.774  72.356 116.652  0.00  0.00     0.028 C 
ATOM     12  C   LIG d   1      -9.775  70.823 116.761  0.00  0.00     0.006 C 
ENDBRANCH   8  11
ENDBRANCH   7   8
ENDBRANCH   1   7
BRANCH   6  13
ATOM     13  N   LIG d   1      -5.929  76.003 117.035  0.00  0.00    -0.311 N 
ATOM     14  C   LIG d   1      -5.036  76.400 116.130  0.00  0.00     0.210 C 
ATOM     15  C   LIG d   1      -3.646  75.772 116.274  0.00  0.00     0.109 C 
ATOM     16  O   LIG d   1      -5.254  77.236 115.241  0.00  0.00    -0.276 OA
ATOM     17  H   LIG d   1      -5.658  75.345 117.739  0.00  0.00     0.149 HD
ENDBRANCH   6  13
BRANCH   5  18
ATOM     18  N   LIG d   1      -6.789  78.889 117.550  0.00  0.00     0.381 N 
ATOM     19  H   LIG d   1      -7.347  79.707 117.691  0.00  0.00    -0.090 HD
ATOM     20  H   LIG d   1      -6.594  78.805 116.568  0.00  0.00    -0.090 HD
ATOM     21  H   LIG d   1      -5.936  78.967 118.060  0.00  0.00    -0.090 HD
ENDBRANCH   5  18
BRANCH   3  22
ATOM     22  C   LIG d   1     -11.044  77.212 118.971  0.00  0.00     0.382 C 
ATOM     23  O   LIG d   1     -12.092  76.626 118.607  0.00  0.00    -0.241 OA
ATOM     24  O   LIG d   1     -11.096  78.043 119.898  0.00  0.00    -0.241 OA
ENDBRANCH   3  22
TORSDOF 7
ENDMDL
MODEL 3
REMARK VINA RESULT:      -5.3      2.669      6.311
REMARK  7 active torsions:
REMARK  status: ('A' for Active; 'I' for Inactive)
REMARK    1  A    between atoms: C_2  and  C_3 
REMARK    2  A    between atoms: C_3  and  O_6 
REMARK    3  A    between atoms: C_3  and  C_4 
REMARK    4  A    between atoms: C_7  and  O_6 
REMARK    5  A    between atoms: C_9  and  C_10 
REMARK    6  A    between atoms: N_15  and  C_14 
REMARK    7  A    between atoms: N_20  and  C_19 
REMARK       I    between atoms: C_22  and  N_20 
ROOT
ATOM      1  C   LIG d   1      -7.122  75.673 116.581  0.00  0.00     0.161 C 
ATOM      2  C   LIG d   1      -8.485  75.698 116.919  0.00  0.00     0.016 C 
ATOM      3  C   LIG d   1      -9.312  74.551 116.905  0.00  0.00     0.038 C 
ATOM      4  C   LIG d   1      -8.792  73.265 116.697  0.00  0.00     0.028 C 
ATOM      5  C   LIG d   1      -7.519  73.255 115.856  0.00  0.00    -0.047 C 
ATOM      6  C   LIG d   1      -6.512  74.261 116.458  0.00  0.00     0.091 C 
ENDROOT
BRANCH   1   7
ATOM      7  O   LIG d   1      -6.370  76.463 117.523  0.00  0.00    -0.368 OA
BRANCH   7   8
ATOM      8  C   LIG d   1      -5.993  77.791 117.083  0.00  0.00     0.119 C 
BRANCH   8   9
ATOM      9  C   LIG d   1      -4.453  77.854 117.067  0.00  0.00     0.028 C 
ATOM     10  C   LIG d   1      -3.887  77.999 115.645  0.00  0.00     0.006 C 
ENDBRANCH   8   9
BRANCH   8  11
ATOM     11  C   LIG d   1      -6.432  78.858 118.091  0.00  0.00     0.028 C 
ATOM     12  C   LIG d   1      -7.890  79.302 117.891  0.00  0.00     0.006 C 
ENDBRANCH   8  11
ENDBRANCH   7   8
ENDBRANCH   1   7
BRANCH   6  13
ATOM     13  N   LIG d   1      -5.272  74.375 115.648  0.00  0.00    -0.311 N 
ATOM     14  C   LIG d   1      -4.051  74.184 116.144  0.00  0.00     0.210 C 
ATOM     15  C   LIG d   1      -2.908  74.371 115.141  0.00  0.00     0.109 C 
ATOM     16  O   LIG d   1      -3.807  73.847 117.313  0.00  0.00    -0.276 OA
ATOM     17  H   LIG d   1      -5.379  74.616 114.682  0.00  0.00     0.149 HD
ENDBRANCH   6  13
BRANCH   5  18
ATOM     18  N   LIG d   1      -7.011  71.871 115.833  0.00  0.00     0.381 N 
ATOM     19  H   LIG d   1      -6.169  71.810 116.371  0.00  0.00    -0.090 HD
ATOM     20  H   LIG d   1      -6.797  71.618 114.884  0.00  0.00    -0.090 HD
ATOM     21  H   LIG d   1      -7.696  71.250 116.204  0.00  0.00    -0.090 HD
ENDBRANCH   5  18
BRANCH   3  22
ATOM     22  C   LIG d   1     -10.682  74.690 117.063  0.00  0.00     0.382 C 
ATOM     23  O   LIG d   1     -11.454  73.786 116.660  0.00  0.00    -0.241 OA
ATOM     24  O   LIG d   1     -11.159  75.726 117.562  0.00  0.00    -0.241 OA
ENDBRANCH   3  22
TORSDOF 7
ENDMDL
MODEL 4
REMARK VINA RESULT:      -5.2      2.388      5.987
REMARK  7 active torsions:
REMARK  status: ('A' for Active; 'I' for Inactive)
REMARK    1  A    between atoms: C_2  and  C_3 
REMARK    2  A    between atoms: C_3  and  O_6 
REMARK    3  A    between atoms: C_3  and  C_4 
REMARK    4  A    between atoms: C_7  and  O_6 
REMARK    5  A    between atoms: C_9  and  C_10 
REMARK    6  A    between atoms: N_15  and  C_14 
REMARK    7  A    between atoms: N_20  and  C_19 
REMARK       I    between atoms: C_22  and  N_20 
ROOT
ATOM      1  C   LIG d   1      -8.162  76.180 117.000  0.00  0.00     0.161 C 
ATOM      2  C   LIG d   1      -9.273  75.321 117.051  0.00  0.00     0.016 C 
ATOM      3  C   LIG d   1      -9.198  73.935 116.784  0.00  0.00     0.038 C 
ATOM      4  C   LIG d   1      -7.971  73.282 116.595  0.00  0.00     0.028 C 
ATOM      5  C   LIG d   1      -6.882  74.190 116.036  0.00  0.00    -0.047 C 
ATOM      6  C   LIG d   1      -6.797  75.466 116.904  0.00  0.00     0.091 C 
ENDROOT
BRANCH   1   7
ATOM      7  O   LIG d   1      -8.182  77.072 118.132  0.00  0.00    -0.368 OA
BRANCH   7   8
ATOM      8  C   LIG d   1      -8.372  78.477 117.832  0.00  0.00     0.119 C 
BRANCH   8   9
ATOM      9  C   LIG d   1      -7.239  79.256 118.528  0.00  0.00     0.028 C 
ATOM     10  C   LIG d   1      -6.281  79.919 117.525  0.00  0.00     0.006 C 
ENDBRANCH   8   9
BRANCH   8  11
ATOM     11  C   LIG d   1      -9.669  79.008 118.450  0.00  0.00     0.028 C 
ATOM     12  C   LIG d   1      -9.939  80.479 118.096  0.00  0.00     0.006 C 
ENDBRANCH   8  11
ENDBRANCH   7   8
ENDBRANCH   1   7
BRANCH   6  13
ATOM     13  N   LIG d   1      -5.813  76.447 116.377  0.00  0.00    -0.311 N 
ATOM     14  C   LIG d   1      -4.550  76.513 116.793  0.00  0.00     0.210 C 
ATOM     15  C   LIG d   1      -3.709  77.611 116.133  0.00  0.00     0.109 C 
ATOM     16  O   LIG d   1      -4.037  75.747 117.622  0.00  0.00    -0.276 OA
ATOM     17  H   LIG d   1      -6.136  77.087 115.678  0.00  0.00     0.149 HD
ENDBRANCH   6  13
BRANCH   5  18
ATOM     18  N   LIG d   1      -5.624  73.419 116.018  0.00  0.00     0.381 N 
ATOM     19  H   LIG d   1      -5.646  72.719 116.733  0.00  0.00    -0.090 HD
ATOM     20  H   LIG d   1      -4.859  74.041 116.208  0.00  0.00    -0.090 HD
ATOM     21  H   LIG d   1      -5.500  72.990 115.127  0.00  0.00    -0.090 HD
ENDBRANCH   5  18
BRANCH   3  22
ATOM     22  C   LIG d   1     -10.364  73.194 116.665  0.00  0.00     0.382 C 
ATOM     23  O   LIG d   1     -11.480  73.761 116.762  0.00  0.00    -0.241 OA
ATOM     24  O   LIG d   1     -10.315  71.960 116.507  0.00  0.00    -0.241 OA
ENDBRANCH   3  22
TORSDOF 7
ENDMDL
MODEL 5
REMARK VINA RESULT:      -5.2      2.321      4.529
REMARK  7 active torsions:
REMARK  status: ('A' for Active; 'I' for Inactive)
REMARK    1  A    between atoms: C_2  and  C_3 
REMARK    2  A    between atoms: C_3  and  O_6 
REMARK    3  A    between atoms: C_3  and  C_4 
REMARK    4  A    between atoms: C_7  and  O_6 
REMARK    5  A    between atoms: C_9  and  C_10 
REMARK    6  A    between atoms: N_15  and  C_14 
REMARK    7  A    between atoms: N_20  and  C_19 
REMARK       I    between atoms: C_22  and  N_20 
ROOT
ATOM      1  C   LIG d   1      -7.304  76.233 116.650  0.00  0.00     0.161 C 
ATOM      2  C   LIG d   1      -6.709  77.472 116.943  0.00  0.00     0.016 C 
ATOM      3  C   LIG d   1      -7.333  78.469 117.728  0.00  0.00     0.038 C 
ATOM      4  C   LIG d   1      -8.539  78.233 118.403  0.00  0.00     0.028 C 
ATOM      5  C   LIG d   1      -9.416  77.183 117.729  0.00  0.00    -0.047 C 
ATOM      6  C   LIG d   1      -8.572  75.915 117.471  0.00  0.00     0.091 C 
ENDROOT
BRANCH   1   7
ATOM      7  O   LIG d   1      -6.333  75.178 116.799  0.00  0.00    -0.368 OA
BRANCH   7   8
ATOM      8  C   LIG d   1      -5.280  75.136 115.804  0.00  0.00     0.119 C 
BRANCH   8   9
ATOM      9  C   LIG d   1      -5.697  74.111 114.732  0.00  0.00     0.028 C 
ATOM     10  C   LIG d   1      -6.533  72.959 115.315  0.00  0.00     0.006 C 
ENDBRANCH   8   9
BRANCH   8  11
ATOM     11  C   LIG d   1      -3.975  74.596 116.397  0.00  0.00     0.028 C 
ATOM     12  C   LIG d   1      -2.891  74.360 115.334  0.00  0.00     0.006 C 
ENDBRANCH   8  11
ENDBRANCH   7   8
ENDBRANCH   1   7
BRANCH   6  13
ATOM     13  N   LIG d   1      -9.330  74.868 116.738  0.00  0.00    -0.311 N 
ATOM     14  C   LIG d   1      -9.570  73.655 117.232  0.00  0.00     0.210 C 
ATOM     15  C   LIG d   1     -10.353  72.721 116.303  0.00  0.00     0.109 C 
ATOM     16  O   LIG d   1      -9.236  73.273 118.364  0.00  0.00    -0.276 OA
ATOM     17  H   LIG d   1      -9.666  75.103 115.824  0.00  0.00     0.149 HD
ENDBRANCH   6  13
BRANCH   5  18
ATOM     18  N   LIG d   1     -10.574  76.937 118.610  0.00  0.00     0.381 N 
ATOM     19  H   LIG d   1     -10.552  77.571 119.384  0.00  0.00    -0.090 HD
ATOM     20  H   LIG d   1     -10.516  76.000 118.968  0.00  0.00    -0.090 HD
ATOM     21  H   LIG d   1     -11.422  77.054 118.100  0.00  0.00    -0.090 HD
ENDBRANCH   5  18
BRANCH   3  22
ATOM     22  C   LIG d   1      -6.768  79.732 117.810  0.00  0.00     0.382 C 
ATOM     23  O   LIG d   1      -7.277  80.689 117.177  0.00  0.00    -0.241 OA
ATOM     24  O   LIG d   1      -5.730  79.918 118.473  0.00  0.00    -0.241 OA
ENDBRANCH   3  22
TORSDOF 7
ENDMDL
MODEL 6
REMARK VINA RESULT:      -5.1      2.148      5.374
REMARK  7 active torsions:
REMARK  status: ('A' for Active; 'I' for Inactive)
REMARK    1  A    between atoms: C_2  and  C_3 
REMARK    2  A    between atoms: C_3  and  O_6 
REMARK    3  A    between atoms: C_3  and  C_4 
REMARK    4  A    between atoms: C_7  and  O_6 
REMARK    5  A    between atoms: C_9  and  C_10 
REMARK    6  A    between atoms: N_15  and  C_14 
REMARK    7  A    between atoms: N_20  and  C_19 
REMARK       I    between atoms: C_22  and  N_20 
ROOT
ATOM      1  C   LIG d   1      -5.939  74.509 116.321  0.00  0.00     0.161 C 
ATOM      2  C   LIG d   1      -6.794  73.437 116.017  0.00  0.00     0.016 C 
ATOM      3  C   LIG d   1      -8.166  73.415 116.358  0.00  0.00     0.038 C 
ATOM      4  C   LIG d   1      -8.814  74.536 116.897  0.00  0.00     0.028 C 
ATOM      5  C   LIG d   1      -7.884  75.454 117.682  0.00  0.00    -0.047 C 
ATOM      6  C   LIG d   1      -6.652  75.787 116.809  0.00  0.00     0.091 C 
ENDROOT
BRANCH   1   7
ATOM      7  O   LIG d   1      -5.103  74.805 115.185  0.00  0.00    -0.368 OA
BRANCH   7   8
ATOM      8  C   LIG d   1      -3.705  74.446 115.311  0.00  0.00     0.119 C 
BRANCH   8   9
ATOM      9  C   LIG d   1      -3.495  73.895 116.735  0.00  0.00     0.028 C 
ATOM     10  C   LIG d   1      -2.021  73.938 117.169  0.00  0.00     0.006 C 
ENDBRANCH   8   9
BRANCH   8  11
ATOM     11  C   LIG d   1      -2.802  75.680 115.216  0.00  0.00     0.028 C 
ATOM     12  C   LIG d   1      -3.345  76.742 114.248  0.00  0.00     0.006 C 
ENDBRANCH   8  11
ENDBRANCH   7   8
ENDBRANCH   1   7
BRANCH   6  13
ATOM     13  N   LIG d   1      -5.651  76.613 117.532  0.00  0.00    -0.311 N 
ATOM     14  C   LIG d   1      -5.301  77.841 117.152  0.00  0.00     0.210 C 
ATOM     15  C   LIG d   1      -4.236  78.509 118.027  0.00  0.00     0.109 C 
ATOM     16  O   LIG d   1      -5.794  78.451 116.192  0.00  0.00    -0.276 OA
ATOM     17  H   LIG d   1      -5.224  76.207 118.342  0.00  0.00     0.149 HD
ENDBRANCH   6  13
BRANCH   5  18
ATOM     18  N   LIG d   1      -8.658  76.649 118.069  0.00  0.00     0.381 N 
ATOM     19  H   LIG d   1      -8.392  77.425 117.497  0.00  0.00    -0.090 HD
ATOM     20  H   LIG d   1      -8.451  76.875 119.026  0.00  0.00    -0.090 HD
ATOM     21  H   LIG d   1      -9.633  76.471 117.966  0.00  0.00    -0.090 HD
ENDBRANCH   5  18
BRANCH   3  22
ATOM     22  C   LIG d   1      -8.895  72.246 116.197  0.00  0.00     0.382 C 
ATOM     23  O   LIG d   1      -8.300  71.151 116.054  0.00  0.00    -0.241 OA
ATOM     24  O   LIG d   1     -10.139  72.280 116.150  0.00  0.00    -0.241 OA
ENDBRANCH   3  22
TORSDOF 7
ENDMDL
MODEL 7
REMARK VINA RESULT:      -4.9      2.117      5.101
REMARK  7 active torsions:
REMARK  status: ('A' for Active; 'I' for Inactive)
REMARK    1  A    between atoms: C_2  and  C_3 
REMARK    2  A    between atoms: C_3  and  O_6 
REMARK    3  A    between atoms: C_3  and  C_4 
REMARK    4  A    between atoms: C_7  and  O_6 
REMARK    5  A    between atoms: C_9  and  C_10 
REMARK    6  A    between atoms: N_15  and  C_14 
REMARK    7  A    between atoms: N_20  and  C_19 
REMARK       I    between atoms: C_22  and  N_20 
ROOT
ATOM      1  C   LIG d   1      -7.319  76.162 117.235  0.00  0.00     0.161 C 
ATOM      2  C   LIG d   1      -8.075  75.059 116.806  0.00  0.00     0.016 C 
ATOM      3  C   LIG d   1      -9.471  74.947 117.005  0.00  0.00     0.038 C 
ATOM      4  C   LIG d   1     -10.234  76.007 117.516  0.00  0.00     0.028 C 
ATOM      5  C   LIG d   1      -9.442  76.940 118.426  0.00  0.00    -0.047 C 
ATOM      6  C   LIG d   1      -8.152  77.377 117.695  0.00  0.00     0.091 C 
ENDROOT
BRANCH   1   7
ATOM      7  O   LIG d   1      -6.393  76.552 116.202  0.00  0.00    -0.368 OA
BRANCH   7   8
ATOM      8  C   LIG d   1      -5.101  75.896 116.223  0.00  0.00     0.119 C 
BRANCH   8   9
ATOM      9  C   LIG d   1      -4.055  76.948 116.639  0.00  0.00     0.028 C 
ATOM     10  C   LIG d   1      -4.341  78.332 116.033  0.00  0.00     0.006 C 
ENDBRANCH   8   9
BRANCH   8  11
ATOM     11  C   LIG d   1      -4.684  75.442 114.821  0.00  0.00     0.028 C 
ATOM     12  C   LIG d   1      -5.846  75.469 113.815  0.00  0.00     0.006 C 
ENDBRANCH   8  11
ENDBRANCH   7   8
ENDBRANCH   1   7
BRANCH   6  13
ATOM     13  N   LIG d   1      -7.277  78.225 118.548  0.00  0.00    -0.311 N 
ATOM     14  C   LIG d   1      -6.971  79.488 118.256  0.00  0.00     0.210 C 
ATOM     15  C   LIG d   1      -6.038  80.175 119.258  0.00  0.00     0.109 C 
ATOM     16  O   LIG d   1      -7.409  80.114 117.279  0.00  0.00    -0.276 OA
ATOM     17  H   LIG d   1      -6.904  77.805 119.376  0.00  0.00     0.149 HD
ENDBRANCH   6  13
BRANCH   5  18
ATOM     18  N   LIG d   1     -10.320  78.072 118.776  0.00  0.00     0.381 N 
ATOM     19  H   LIG d   1      -9.769  78.836 119.114  0.00  0.00    -0.090 HD
ATOM     20  H   LIG d   1     -10.944  77.785 119.509  0.00  0.00    -0.090 HD
ATOM     21  H   LIG d   1     -10.843  78.358 117.978  0.00  0.00    -0.090 HD
ENDBRANCH   5  18
BRANCH   3  22
ATOM     22  C   LIG d   1     -10.110  73.749 116.727  0.00  0.00     0.382 C 
ATOM     23  O   LIG d   1      -9.445  72.757 116.341  0.00  0.00    -0.241 OA
ATOM     24  O   LIG d   1     -11.350  73.659 116.814  0.00  0.00    -0.241 OA
ENDBRANCH   3  22
TORSDOF 7
ENDMDL
MODEL 8
REMARK VINA RESULT:      -4.9      2.502      5.353
REMARK  7 active torsions:
REMARK  status: ('A' for Active; 'I' for Inactive)
REMARK    1  A    between atoms: C_2  and  C_3 
REMARK    2  A    between atoms: C_3  and  O_6 
REMARK    3  A    between atoms: C_3  and  C_4 
REMARK    4  A    between atoms: C_7  and  O_6 
REMARK    5  A    between atoms: C_9  and  C_10 
REMARK    6  A    between atoms: N_15  and  C_14 
REMARK    7  A    between atoms: N_20  and  C_19 
REMARK       I    between atoms: C_22  and  N_20 
ROOT
ATOM      1  C   LIG d   1      -6.425  76.821 116.670  0.00  0.00     0.161 C 
ATOM      2  C   LIG d   1      -7.766  76.465 116.886  0.00  0.00     0.016 C 
ATOM      3  C   LIG d   1      -8.667  77.246 117.645  0.00  0.00     0.038 C 
ATOM      4  C   LIG d   1      -8.325  78.522 118.117  0.00  0.00     0.028 C 
ATOM      5  C   LIG d   1      -6.829  78.700 118.354  0.00  0.00    -0.047 C 
ATOM      6  C   LIG d   1      -6.064  78.264 117.083  0.00  0.00     0.091 C 
ENDROOT
BRANCH   1   7
ATOM      7  O   LIG d   1      -6.074  76.593 115.290  0.00  0.00    -0.368 OA
BRANCH   7   8
ATOM      8  C   LIG d   1      -5.072  75.576 115.047  0.00  0.00     0.119 C 
BRANCH   8   9
ATOM      9  C   LIG d   1      -5.761  74.417 114.300  0.00  0.00     0.028 C 
ATOM     10  C   LIG d   1      -6.345  73.366 115.259  0.00  0.00     0.006 C 
ENDBRANCH   8   9
BRANCH   8  11
ATOM     11  C   LIG d   1      -4.565  74.969 116.358  0.00  0.00     0.028 C 
ATOM     12  C   LIG d   1      -3.032  74.990 116.471  0.00  0.00     0.006 C 
ENDBRANCH   8  11
ENDBRANCH   7   8
ENDBRANCH   1   7
BRANCH   6  13
ATOM     13  N   LIG d   1      -4.590  78.326 117.259  0.00  0.00    -0.311 N 
ATOM     14  C   LIG d   1      -3.768  78.880 116.369  0.00  0.00     0.210 C 
ATOM     15  C   LIG d   1      -2.282  78.820 116.736  0.00  0.00     0.109 C 
ATOM     16  O   LIG d   1      -4.132  79.443 115.326  0.00  0.00    -0.276 OA
ATOM     17  H   LIG d   1      -4.212  77.920 118.093  0.00  0.00     0.149 HD
ENDBRANCH   6  13
BRANCH   5  18
ATOM     18  N   LIG d   1      -6.598  80.113 118.711  0.00  0.00     0.381 N 
ATOM     19  H   LIG d   1      -6.074  80.166 119.561  0.00  0.00    -0.090 HD
ATOM     20  H   LIG d   1      -7.486  80.559 118.859  0.00  0.00    -0.090 HD
ATOM     21  H   LIG d   1      -6.105  80.573 117.978  0.00  0.00    -0.090 HD
ENDBRANCH   5  18
BRANCH   3  22
ATOM     22  C   LIG d   1      -9.913  76.735 117.973  0.00  0.00     0.382 C 
ATOM     23  O   LIG d   1     -10.156  75.516 117.799  0.00  0.00    -0.241 OA
ATOM     24  O   LIG d   1     -10.811  77.485 118.400  0.00  0.00    -0.241 OA
ENDBRANCH   3  22
TORSDOF 7
ENDMDL
MODEL 9
REMARK VINA RESULT:      -4.9      3.440      4.943
REMARK  7 active torsions:
REMARK  status: ('A' for Active; 'I' for Inactive)
REMARK    1  A    between atoms: C_2  and  C_3 
REMARK    2  A    between atoms: C_3  and  O_6 
REMARK    3  A    between atoms: C_3  and  C_4 
REMARK    4  A    between atoms: C_7  and  O_6 
REMARK    5  A    between atoms: C_9  and  C_10 
REMARK    6  A    between atoms: N_15  and  C_14 
REMARK    7  A    between atoms: N_20  and  C_19 
REMARK       I    between atoms: C_22  and  N_20 
ROOT
ATOM      1  C   LIG d   1      -4.253  76.359 117.298  0.00  0.00     0.161 C 
ATOM      2  C   LIG d   1      -4.288  77.240 116.204  0.00  0.00     0.016 C 
ATOM      3  C   LIG d   1      -3.294  77.273 115.199  0.00  0.00     0.038 C 
ATOM      4  C   LIG d   1      -2.269  76.317 115.138  0.00  0.00     0.028 C 
ATOM      5  C   LIG d   1      -1.910  75.727 116.498  0.00  0.00    -0.047 C 
ATOM      6  C   LIG d   1      -3.202  75.234 117.188  0.00  0.00     0.091 C 
ENDROOT
BRANCH   1   7
ATOM      7  O   LIG d   1      -5.564  75.800 117.517  0.00  0.00    -0.368 OA
BRANCH   7   8
ATOM      8  C   LIG d   1      -6.405  75.669 116.344  0.00  0.00     0.119 C 
BRANCH   8   9
ATOM      9  C   LIG d   1      -7.849  75.995 116.772  0.00  0.00     0.028 C 
ATOM     10  C   LIG d   1      -8.635  74.741 117.190  0.00  0.00     0.006 C 
ENDBRANCH   8   9
BRANCH   8  11
ATOM     11  C   LIG d   1      -6.446  74.221 115.847  0.00  0.00     0.028 C 
ATOM     12  C   LIG d   1      -5.635  74.010 114.559  0.00  0.00     0.006 C 
ENDBRANCH   8  11
ENDBRANCH   7   8
ENDBRANCH   1   7
BRANCH   6  13
ATOM     13  N   LIG d   1      -2.951  74.718 118.559  0.00  0.00    -0.311 N 
ATOM     14  C   LIG d   1      -2.687  73.440 118.825  0.00  0.00     0.210 C 
ATOM     15  C   LIG d   1      -2.479  73.117 120.308  0.00  0.00     0.109 C 
ATOM     16  O   LIG d   1      -2.573  72.549 117.970  0.00  0.00    -0.276 OA
ATOM     17  H   LIG d   1      -2.993  75.379 119.310  0.00  0.00     0.149 HD
ENDBRANCH   6  13
BRANCH   5  18
ATOM     18  N   LIG d   1      -0.929  74.649 116.270  0.00  0.00     0.381 N 
ATOM     19  H   LIG d   1      -1.132  73.874 116.869  0.00  0.00    -0.090 HD
ATOM     20  H   LIG d   1      -0.012  74.990 116.497  0.00  0.00    -0.090 HD
ATOM     21  H   LIG d   1      -0.957  74.358 115.318  0.00  0.00    -0.090 HD
ENDBRANCH   5  18
BRANCH   3  22
ATOM     22  C   LIG d   1      -3.297  78.296 114.263  0.00  0.00     0.382 C 
ATOM     23  O   LIG d   1      -3.518  79.477 114.626  0.00  0.00    -0.241 OA
ATOM     24  O   LIG d   1      -3.124  78.047 113.055  0.00  0.00    -0.241 OA
ENDBRANCH   3  22
TORSDOF 7
ENDMDL
