MODEL 1
REMARK VINA RESULT:      -5.4      0.000      0.000
REMARK  7 active torsions:
REMARK  status: ('A' for Active; 'I' for Inactive)
REMARK    1  A    between atoms: C_2  and  C_3 
REMARK    2  A    between atoms: C_3  and  O_6 
REMARK    3  A    between atoms: C_3  and  C_4 
REMARK    4  A    between atoms: C_7  and  O_6 
REMARK    5  A    between atoms: C_9  and  C_10 
REMARK    6  A    between atoms: N_15  and  C_14 
REMARK    7  A    between atoms: N_20  and  C_19 
REMARK       I    between atoms: C_22  and  N_20 
ROOT
ATOM      1  C   LIG d   1      -5.595  92.202 117.421  0.00  0.00     0.161 C 
ATOM      2  C   LIG d   1      -6.658  91.426 116.930  0.00  0.00     0.016 C 
ATOM      3  C   LIG d   1      -6.487  90.145 116.355  0.00  0.00     0.038 C 
ATOM      4  C   LIG d   1      -5.249  89.486 116.371  0.00  0.00     0.028 C 
ATOM      5  C   LIG d   1      -4.056  90.436 116.400  0.00  0.00    -0.047 C 
ATOM      6  C   LIG d   1      -4.252  91.452 117.548  0.00  0.00     0.091 C 
ENDROOT
BRANCH   1   7
ATOM      7  O   LIG d   1      -5.963  92.789 118.685  0.00  0.00    -0.368 OA
BRANCH   7   8
ATOM      8  C   LIG d   1      -6.010  94.237 118.725  0.00  0.00     0.119 C 
BRANCH   8   9
ATOM      9  C   LIG d   1      -5.287  94.688 120.009  0.00  0.00     0.028 C 
ATOM     10  C   LIG d   1      -5.057  93.528 120.992  0.00  0.00     0.006 C 
ENDBRANCH   8   9
BRANCH   8  11
ATOM     11  C   LIG d   1      -7.448  94.743 118.871  0.00  0.00     0.028 C 
ATOM     12  C   LIG d   1      -8.399  93.680 119.444  0.00  0.00     0.006 C 
ENDBRANCH   8  11
ENDBRANCH   7   8
ENDBRANCH   1   7
BRANCH   6  13
ATOM     13  N   LIG d   1      -3.171  92.471 117.594  0.00  0.00    -0.311 N 
ATOM     14  C   LIG d   1      -2.326  92.597 118.616  0.00  0.00     0.210 C 
ATOM     15  C   LIG d   1      -1.299  93.725 118.470  0.00  0.00     0.109 C 
ATOM     16  O   LIG d   1      -2.308  91.861 119.614  0.00  0.00    -0.276 OA
ATOM     17  H   LIG d   1      -3.094  93.089 116.811  0.00  0.00     0.149 HD
ENDBRANCH   6  13
BRANCH   5  18
ATOM     18  N   LIG d   1      -2.838  89.618 116.554  0.00  0.00     0.381 N 
ATOM     19  H   LIG d   1      -2.442  89.429 115.656  0.00  0.00    -0.090 HD
ATOM     20  H   LIG d   1      -3.087  88.742 116.980  0.00  0.00    -0.090 HD
ATOM     21  H   LIG d   1      -2.176  90.096 117.124  0.00  0.00    -0.090 HD
ENDBRANCH   5  18
BRANCH   3  22
ATOM     22  C   LIG d   1      -7.554  89.528 115.721  0.00  0.00     0.382 C 
ATOM     23  O   LIG d   1      -8.313  88.767 116.368  0.00  0.00    -0.241 OA
ATOM     24  O   LIG d   1      -7.741  89.688 114.500  0.00  0.00    -0.241 OA
ENDBRANCH   3  22
TORSDOF 7
ENDMDL
MODEL 2
REMARK VINA RESULT:      -5.3      2.209      5.446
REMARK  7 active torsions:
REMARK  status: ('A' for Active; 'I' for Inactive)
REMARK    1  A    between atoms: C_2  and  C_3 
REMARK    2  A    between atoms: C_3  and  O_6 
REMARK    3  A    between atoms: C_3  and  C_4 
REMARK    4  A    between atoms: C_7  and  O_6 
REMARK    5  A    between atoms: C_9  and  C_10 
REMARK    6  A    between atoms: N_15  and  C_14 
REMARK    7  A    between atoms: N_20  and  C_19 
REMARK       I    between atoms: C_22  and  N_20 
ROOT
ATOM      1  C   LIG d   1      -5.058  92.449 118.547  0.00  0.00     0.161 C 
ATOM      2  C   LIG d   1      -5.471  93.572 119.284  0.00  0.00     0.016 C 
ATOM      3  C   LIG d   1      -6.647  94.302 118.997  0.00  0.00     0.038 C 
ATOM      4  C   LIG d   1      -7.576  93.866 118.041  0.00  0.00     0.028 C 
ATOM      5  C   LIG d   1      -6.953  93.024 116.932  0.00  0.00    -0.047 C 
ATOM      6  C   LIG d   1      -6.116  91.893 117.571  0.00  0.00     0.091 C 
ENDROOT
BRANCH   1   7
ATOM      7  O   LIG d   1      -4.609  91.414 119.444  0.00  0.00    -0.368 OA
BRANCH   7   8
ATOM      8  C   LIG d   1      -3.197  91.096 119.394  0.00  0.00     0.119 C 
BRANCH   8   9
ATOM      9  C   LIG d   1      -2.538  92.068 118.396  0.00  0.00     0.028 C 
ATOM     10  C   LIG d   1      -1.530  93.012 119.074  0.00  0.00     0.006 C 
ENDBRANCH   8   9
BRANCH   8  11
ATOM     11  C   LIG d   1      -2.960  89.698 118.815  0.00  0.00     0.028 C 
ATOM     12  C   LIG d   1      -2.150  89.724 117.509  0.00  0.00     0.006 C 
ENDBRANCH   8  11
ENDBRANCH   7   8
ENDBRANCH   1   7
BRANCH   6  13
ATOM     13  N   LIG d   1      -5.403  91.072 116.557  0.00  0.00    -0.311 N 
ATOM     14  C   LIG d   1      -5.885  89.931 116.068  0.00  0.00     0.210 C 
ATOM     15  C   LIG d   1      -4.981  89.233 115.046  0.00  0.00     0.109 C 
ATOM     16  O   LIG d   1      -6.989  89.446 116.359  0.00  0.00    -0.276 OA
ATOM     17  H   LIG d   1      -4.514  91.408 116.241  0.00  0.00     0.149 HD
ENDBRANCH   6  13
BRANCH   5  18
ATOM     18  N   LIG d   1      -8.051  92.522 116.084  0.00  0.00     0.381 N 
ATOM     19  H   LIG d   1      -8.746  93.233 115.974  0.00  0.00    -0.090 HD
ATOM     20  H   LIG d   1      -8.476  91.732 116.536  0.00  0.00    -0.090 HD
ATOM     21  H   LIG d   1      -7.697  92.253 115.192  0.00  0.00    -0.090 HD
ENDBRANCH   5  18
BRANCH   3  22
ATOM     22  C   LIG d   1      -6.883  95.506 119.643  0.00  0.00     0.382 C 
ATOM     23  O   LIG d   1      -6.027  96.421 119.598  0.00  0.00    -0.241 OA
ATOM     24  O   LIG d   1      -7.923  95.672 120.309  0.00  0.00    -0.241 OA
ENDBRANCH   3  22
TORSDOF 7
ENDMDL
MODEL 3
REMARK VINA RESULT:      -5.3     24.310     26.974
REMARK  7 active torsions:
REMARK  status: ('A' for Active; 'I' for Inactive)
REMARK    1  A    between atoms: C_2  and  C_3 
REMARK    2  A    between atoms: C_3  and  O_6 
REMARK    3  A    between atoms: C_3  and  C_4 
REMARK    4  A    between atoms: C_7  and  O_6 
REMARK    5  A    between atoms: C_9  and  C_10 
REMARK    6  A    between atoms: N_15  and  C_14 
REMARK    7  A    between atoms: N_20  and  C_19 
REMARK       I    between atoms: C_22  and  N_20 
ROOT
ATOM      1  C   LIG d   1     -14.809  67.470 117.718  0.00  0.00     0.161 C 
ATOM      2  C   LIG d   1     -14.702  67.943 116.400  0.00  0.00     0.016 C 
ATOM      3  C   LIG d   1     -15.299  67.300 115.292  0.00  0.00     0.038 C 
ATOM      4  C   LIG d   1     -16.176  66.216 115.447  0.00  0.00     0.028 C 
ATOM      5  C   LIG d   1     -15.911  65.398 116.707  0.00  0.00    -0.047 C 
ATOM      6  C   LIG d   1     -15.853  66.352 117.922  0.00  0.00     0.091 C 
ENDROOT
BRANCH   1   7
ATOM      7  O   LIG d   1     -15.071  68.569 118.612  0.00  0.00    -0.368 OA
BRANCH   7   8
ATOM      8  C   LIG d   1     -16.395  69.154 118.533  0.00  0.00     0.119 C 
BRANCH   8   9
ATOM      9  C   LIG d   1     -16.231  70.605 118.043  0.00  0.00     0.028 C 
ATOM     10  C   LIG d   1     -16.724  71.632 119.076  0.00  0.00     0.006 C 
ENDBRANCH   8   9
BRANCH   8  11
ATOM     11  C   LIG d   1     -17.040  69.263 119.917  0.00  0.00     0.028 C 
ATOM     12  C   LIG d   1     -18.369  68.499 120.018  0.00  0.00     0.006 C 
ENDBRANCH   8  11
ENDBRANCH   7   8
ENDBRANCH   1   7
BRANCH   6  13
ATOM     13  N   LIG d   1     -15.514  65.644 119.183  0.00  0.00    -0.311 N 
ATOM     14  C   LIG d   1     -16.429  65.147 120.014  0.00  0.00     0.210 C 
ATOM     15  C   LIG d   1     -15.865  64.472 121.268  0.00  0.00     0.109 C 
ATOM     16  O   LIG d   1     -17.653  65.173 119.816  0.00  0.00    -0.276 OA
ATOM     17  H   LIG d   1     -14.542  65.550 119.407  0.00  0.00     0.149 HD
ENDBRANCH   6  13
BRANCH   5  18
ATOM     18  N   LIG d   1     -16.980  64.388 116.815  0.00  0.00     0.381 N 
ATOM     19  H   LIG d   1     -17.873  64.829 116.732  0.00  0.00    -0.090 HD
ATOM     20  H   LIG d   1     -16.926  63.953 117.720  0.00  0.00    -0.090 HD
ATOM     21  H   LIG d   1     -16.873  63.700 116.102  0.00  0.00    -0.090 HD
ENDBRANCH   5  18
BRANCH   3  22
ATOM     22  C   LIG d   1     -14.988  67.716 114.006  0.00  0.00     0.382 C 
ATOM     23  O   LIG d   1     -14.710  68.920 113.787  0.00  0.00    -0.241 OA
ATOM     24  O   LIG d   1     -15.027  66.913 113.055  0.00  0.00    -0.241 OA
ENDBRANCH   3  22
TORSDOF 7
ENDMDL
MODEL 4
REMARK VINA RESULT:      -5.2      1.521      2.083
REMARK  7 active torsions:
REMARK  status: ('A' for Active; 'I' for Inactive)
REMARK    1  A    between atoms: C_2  and  C_3 
REMARK    2  A    between atoms: C_3  and  O_6 
REMARK    3  A    between atoms: C_3  and  C_4 
REMARK    4  A    between atoms: C_7  and  O_6 
REMARK    5  A    between atoms: C_9  and  C_10 
REMARK    6  A    between atoms: N_15  and  C_14 
REMARK    7  A    between atoms: N_20  and  C_19 
REMARK       I    between atoms: C_22  and  N_20 
ROOT
ATOM      1  C   LIG d   1      -6.213  92.677 118.237  0.00  0.00     0.161 C 
ATOM      2  C   LIG d   1      -6.836  91.657 117.499  0.00  0.00     0.016 C 
ATOM      3  C   LIG d   1      -6.129  90.596 116.887  0.00  0.00     0.038 C 
ATOM      4  C   LIG d   1      -4.756  90.400 117.100  0.00  0.00     0.028 C 
ATOM      5  C   LIG d   1      -4.003  91.687 117.421  0.00  0.00    -0.047 C 
ATOM      6  C   LIG d   1      -4.729  92.419 118.573  0.00  0.00     0.091 C 
ENDROOT
BRANCH   1   7
ATOM      7  O   LIG d   1      -6.962  92.936 119.441  0.00  0.00    -0.368 OA
BRANCH   7   8
ATOM      8  C   LIG d   1      -7.931  94.011 119.370  0.00  0.00     0.119 C 
BRANCH   8   9
ATOM      9  C   LIG d   1      -7.456  95.126 120.322  0.00  0.00     0.028 C 
ATOM     10  C   LIG d   1      -6.808  96.302 119.573  0.00  0.00     0.006 C 
ENDBRANCH   8   9
BRANCH   8  11
ATOM     11  C   LIG d   1      -9.294  93.569 119.911  0.00  0.00     0.028 C 
ATOM     12  C   LIG d   1      -9.804  94.468 121.048  0.00  0.00     0.006 C 
ENDBRANCH   8  11
ENDBRANCH   7   8
ENDBRANCH   1   7
BRANCH   6  13
ATOM     13  N   LIG d   1      -4.106  93.730 118.893  0.00  0.00    -0.311 N 
ATOM     14  C   LIG d   1      -3.777  94.102 120.129  0.00  0.00     0.210 C 
ATOM     15  C   LIG d   1      -3.165  95.502 120.241  0.00  0.00     0.109 C 
ATOM     16  O   LIG d   1      -3.905  93.394 121.139  0.00  0.00    -0.276 OA
ATOM     17  H   LIG d   1      -3.939  94.354 118.129  0.00  0.00     0.149 HD
ENDBRANCH   6  13
BRANCH   5  18
ATOM     18  N   LIG d   1      -2.614  91.319 117.754  0.00  0.00     0.381 N 
ATOM     19  H   LIG d   1      -2.383  90.445 117.326  0.00  0.00    -0.090 HD
ATOM     20  H   LIG d   1      -2.536  91.213 118.751  0.00  0.00    -0.090 HD
ATOM     21  H   LIG d   1      -1.989  92.027 117.439  0.00  0.00    -0.090 HD
ENDBRANCH   5  18
BRANCH   3  22
ATOM     22  C   LIG d   1      -6.790  89.740 116.019  0.00  0.00     0.382 C 
ATOM     23  O   LIG d   1      -6.364  89.582 114.849  0.00  0.00    -0.241 OA
ATOM     24  O   LIG d   1      -7.831  89.159 116.376  0.00  0.00    -0.241 OA
ENDBRANCH   3  22
TORSDOF 7
ENDMDL
MODEL 5
REMARK VINA RESULT:      -5.2      2.494      4.439
REMARK  7 active torsions:
REMARK  status: ('A' for Active; 'I' for Inactive)
REMARK    1  A    between atoms: C_2  and  C_3 
REMARK    2  A    between atoms: C_3  and  O_6 
REMARK    3  A    between atoms: C_3  and  C_4 
REMARK    4  A    between atoms: C_7  and  O_6 
REMARK    5  A    between atoms: C_9  and  C_10 
REMARK    6  A    between atoms: N_15  and  C_14 
REMARK    7  A    between atoms: N_20  and  C_19 
REMARK       I    between atoms: C_22  and  N_20 
ROOT
ATOM      1  C   LIG d   1      -5.631  91.283 118.827  0.00  0.00     0.161 C 
ATOM      2  C   LIG d   1      -4.902  90.447 117.967  0.00  0.00     0.016 C 
ATOM      3  C   LIG d   1      -5.138  90.365 116.575  0.00  0.00     0.038 C 
ATOM      4  C   LIG d   1      -6.026  91.233 115.922  0.00  0.00     0.028 C 
ATOM      5  C   LIG d   1      -7.146  91.743 116.822  0.00  0.00    -0.047 C 
ATOM      6  C   LIG d   1      -6.528  92.319 118.116  0.00  0.00     0.091 C 
ENDROOT
BRANCH   1   7
ATOM      7  O   LIG d   1      -4.736  91.943 119.744  0.00  0.00    -0.368 OA
BRANCH   7   8
ATOM      8  C   LIG d   1      -3.325  91.663 119.568  0.00  0.00     0.119 C 
BRANCH   8   9
ATOM      9  C   LIG d   1      -2.797  91.090 120.898  0.00  0.00     0.028 C 
ATOM     10  C   LIG d   1      -2.932  89.560 120.972  0.00  0.00     0.006 C 
ENDBRANCH   8   9
BRANCH   8  11
ATOM     11  C   LIG d   1      -2.527  92.950 119.336  0.00  0.00     0.028 C 
ATOM     12  C   LIG d   1      -1.669  92.897 118.062  0.00  0.00     0.006 C 
ENDBRANCH   8  11
ENDBRANCH   7   8
ENDBRANCH   1   7
BRANCH   6  13
ATOM     13  N   LIG d   1      -7.560  92.763 119.088  0.00  0.00    -0.311 N 
ATOM     14  C   LIG d   1      -7.753  94.038 119.422  0.00  0.00     0.210 C 
ATOM     15  C   LIG d   1      -8.856  94.276 120.458  0.00  0.00     0.109 C 
ATOM     16  O   LIG d   1      -7.137  94.997 118.934  0.00  0.00    -0.276 OA
ATOM     17  H   LIG d   1      -8.127  92.053 119.509  0.00  0.00     0.149 HD
ENDBRANCH   6  13
BRANCH   5  18
ATOM     18  N   LIG d   1      -7.914  92.742 116.054  0.00  0.00     0.381 N 
ATOM     19  H   LIG d   1      -7.684  92.673 115.083  0.00  0.00    -0.090 HD
ATOM     20  H   LIG d   1      -7.663  93.661 116.373  0.00  0.00    -0.090 HD
ATOM     21  H   LIG d   1      -8.891  92.593 116.182  0.00  0.00    -0.090 HD
ENDBRANCH   5  18
BRANCH   3  22
ATOM     22  C   LIG d   1      -4.511  89.379 115.828  0.00  0.00     0.382 C 
ATOM     23  O   LIG d   1      -5.041  88.963 114.770  0.00  0.00    -0.241 OA
ATOM     24  O   LIG d   1      -3.445  88.870 116.222  0.00  0.00    -0.241 OA
ENDBRANCH   3  22
TORSDOF 7
ENDMDL
MODEL 6
REMARK VINA RESULT:      -5.1      2.226      4.278
REMARK  7 active torsions:
REMARK  status: ('A' for Active; 'I' for Inactive)
REMARK    1  A    between atoms: C_2  and  C_3 
REMARK    2  A    between atoms: C_3  and  O_6 
REMARK    3  A    between atoms: C_3  and  C_4 
REMARK    4  A    between atoms: C_7  and  O_6 
REMARK    5  A    between atoms: C_9  and  C_10 
REMARK    6  A    between atoms: N_15  and  C_14 
REMARK    7  A    between atoms: N_20  and  C_19 
REMARK       I    between atoms: C_22  and  N_20 
ROOT
ATOM      1  C   LIG d   1      -4.173  90.882 118.052  0.00  0.00     0.161 C 
ATOM      2  C   LIG d   1      -4.962  90.168 117.136  0.00  0.00     0.016 C 
ATOM      3  C   LIG d   1      -6.173  90.663 116.600  0.00  0.00     0.038 C 
ATOM      4  C   LIG d   1      -6.603  91.978 116.830  0.00  0.00     0.028 C 
ATOM      5  C   LIG d   1      -6.099  92.558 118.148  0.00  0.00    -0.047 C 
ATOM      6  C   LIG d   1      -4.568  92.363 118.229  0.00  0.00     0.091 C 
ENDROOT
BRANCH   1   7
ATOM      7  O   LIG d   1      -2.783  90.775 117.687  0.00  0.00    -0.368 OA
BRANCH   7   8
ATOM      8  C   LIG d   1      -2.056  89.662 118.264  0.00  0.00     0.119 C 
BRANCH   8   9
ATOM      9  C   LIG d   1      -1.356  90.176 119.537  0.00  0.00     0.028 C 
ATOM     10  C   LIG d   1      -2.061  89.712 120.823  0.00  0.00     0.006 C 
ENDBRANCH   8   9
BRANCH   8  11
ATOM     11  C   LIG d   1      -0.927  89.194 117.341  0.00  0.00     0.028 C 
ATOM     12  C   LIG d   1       0.277  90.149 117.342  0.00  0.00     0.006 C 
ENDBRANCH   8  11
ENDBRANCH   7   8
ENDBRANCH   1   7
BRANCH   6  13
ATOM     13  N   LIG d   1      -4.006  92.827 119.525  0.00  0.00    -0.311 N 
ATOM     14  C   LIG d   1      -2.852  93.483 119.630  0.00  0.00     0.210 C 
ATOM     15  C   LIG d   1      -2.446  93.852 121.060  0.00  0.00     0.109 C 
ATOM     16  O   LIG d   1      -2.142  93.823 118.672  0.00  0.00    -0.276 OA
ATOM     17  H   LIG d   1      -4.533  92.621 120.351  0.00  0.00     0.149 HD
ENDBRANCH   6  13
BRANCH   5  18
ATOM     18  N   LIG d   1      -6.505  93.975 118.195  0.00  0.00     0.381 N 
ATOM     19  H   LIG d   1      -7.149  94.168 117.454  0.00  0.00    -0.090 HD
ATOM     20  H   LIG d   1      -5.692  94.551 118.064  0.00  0.00    -0.090 HD
ATOM     21  H   LIG d   1      -6.928  94.180 119.074  0.00  0.00    -0.090 HD
ENDBRANCH   5  18
BRANCH   3  22
ATOM     22  C   LIG d   1      -6.989  89.825 115.855  0.00  0.00     0.382 C 
ATOM     23  O   LIG d   1      -7.844  89.109 116.430  0.00  0.00    -0.241 OA
ATOM     24  O   LIG d   1      -6.850  89.742 114.620  0.00  0.00    -0.241 OA
ENDBRANCH   3  22
TORSDOF 7
ENDMDL
MODEL 7
REMARK VINA RESULT:      -5.0      3.105      5.532
REMARK  7 active torsions:
REMARK  status: ('A' for Active; 'I' for Inactive)
REMARK    1  A    between atoms: C_2  and  C_3 
REMARK    2  A    between atoms: C_3  and  O_6 
REMARK    3  A    between atoms: C_3  and  C_4 
REMARK    4  A    between atoms: C_7  and  O_6 
REMARK    5  A    between atoms: C_9  and  C_10 
REMARK    6  A    between atoms: N_15  and  C_14 
REMARK    7  A    between atoms: N_20  and  C_19 
REMARK       I    between atoms: C_22  and  N_20 
ROOT
ATOM      1  C   LIG d   1      -2.352  89.811 117.503  0.00  0.00     0.161 C 
ATOM      2  C   LIG d   1      -3.348  89.371 116.615  0.00  0.00     0.016 C 
ATOM      3  C   LIG d   1      -4.557  90.071 116.393  0.00  0.00     0.038 C 
ATOM      4  C   LIG d   1      -4.787  91.344 116.935  0.00  0.00     0.028 C 
ATOM      5  C   LIG d   1      -4.028  91.595 118.234  0.00  0.00    -0.047 C 
ATOM      6  C   LIG d   1      -2.536  91.254 118.018  0.00  0.00     0.091 C 
ENDROOT
BRANCH   1   7
ATOM      7  O   LIG d   1      -1.054  89.658 116.895  0.00  0.00    -0.368 OA
BRANCH   7   8
ATOM      8  C   LIG d   1      -0.152  88.729 117.544  0.00  0.00     0.119 C 
BRANCH   8   9
ATOM      9  C   LIG d   1       1.174  89.473 117.800  0.00  0.00     0.028 C 
ATOM     10  C   LIG d   1       1.387  90.643 116.825  0.00  0.00     0.006 C 
ENDBRANCH   8   9
BRANCH   8  11
ATOM     11  C   LIG d   1       0.209  87.564 116.618  0.00  0.00     0.028 C 
ATOM     12  C   LIG d   1       1.457  86.797 117.084  0.00  0.00     0.006 C 
ENDBRANCH   8  11
ENDBRANCH   7   8
ENDBRANCH   1   7
BRANCH   6  13
ATOM     13  N   LIG d   1      -1.737  91.391 119.264  0.00  0.00    -0.311 N 
ATOM     14  C   LIG d   1      -0.770  92.294 119.419  0.00  0.00     0.210 C 
ATOM     15  C   LIG d   1      -0.058  92.253 120.774  0.00  0.00     0.109 C 
ATOM     16  O   LIG d   1      -0.457  93.146 118.574  0.00  0.00    -0.276 OA
ATOM     17  H   LIG d   1      -1.947  90.760 120.012  0.00  0.00     0.149 HD
ENDBRANCH   6  13
BRANCH   5  18
ATOM     18  N   LIG d   1      -4.250  93.003 118.614  0.00  0.00     0.381 N 
ATOM     19  H   LIG d   1      -3.604  93.266 119.331  0.00  0.00    -0.090 HD
ATOM     20  H   LIG d   1      -5.181  93.099 118.979  0.00  0.00    -0.090 HD
ATOM     21  H   LIG d   1      -4.134  93.593 117.820  0.00  0.00    -0.090 HD
ENDBRANCH   5  18
BRANCH   3  22
ATOM     22  C   LIG d   1      -5.568  89.478 115.653  0.00  0.00     0.382 C 
ATOM     23  O   LIG d   1      -6.731  89.412 116.120  0.00  0.00    -0.241 OA
ATOM     24  O   LIG d   1      -5.323  88.968 114.543  0.00  0.00    -0.241 OA
ENDBRANCH   3  22
TORSDOF 7
ENDMDL
MODEL 8
REMARK VINA RESULT:      -4.9     13.028     15.724
REMARK  7 active torsions:
REMARK  status: ('A' for Active; 'I' for Inactive)
REMARK    1  A    between atoms: C_2  and  C_3 
REMARK    2  A    between atoms: C_3  and  O_6 
REMARK    3  A    between atoms: C_3  and  C_4 
REMARK    4  A    between atoms: C_7  and  O_6 
REMARK    5  A    between atoms: C_9  and  C_10 
REMARK    6  A    between atoms: N_15  and  C_14 
REMARK    7  A    between atoms: N_20  and  C_19 
REMARK       I    between atoms: C_22  and  N_20 
ROOT
ATOM      1  C   LIG d   1      -2.756  77.012 115.080  0.00  0.00     0.161 C 
ATOM      2  C   LIG d   1      -2.480  75.891 115.880  0.00  0.00     0.016 C 
ATOM      3  C   LIG d   1      -1.488  75.879 116.888  0.00  0.00     0.038 C 
ATOM      4  C   LIG d   1      -0.804  77.043 117.268  0.00  0.00     0.028 C 
ATOM      5  C   LIG d   1      -0.691  78.073 116.149  0.00  0.00    -0.047 C 
ATOM      6  C   LIG d   1      -2.096  78.324 115.555  0.00  0.00     0.091 C 
ENDROOT
BRANCH   1   7
ATOM      7  O   LIG d   1      -4.182  77.185 114.956  0.00  0.00    -0.368 OA
BRANCH   7   8
ATOM      8  C   LIG d   1      -4.997  76.048 115.334  0.00  0.00     0.119 C 
BRANCH   8   9
ATOM      9  C   LIG d   1      -5.378  75.302 114.041  0.00  0.00     0.028 C 
ATOM     10  C   LIG d   1      -5.606  73.799 114.276  0.00  0.00     0.006 C 
ENDBRANCH   8   9
BRANCH   8  11
ATOM     11  C   LIG d   1      -6.325  76.496 115.951  0.00  0.00     0.028 C 
ATOM     12  C   LIG d   1      -6.155  77.632 116.971  0.00  0.00     0.006 C 
ENDBRANCH   8  11
ENDBRANCH   7   8
ENDBRANCH   1   7
BRANCH   6  13
ATOM     13  N   LIG d   1      -2.065  79.256 114.398  0.00  0.00    -0.311 N 
ATOM     14  C   LIG d   1      -2.764  80.389 114.349  0.00  0.00     0.210 C 
ATOM     15  C   LIG d   1      -2.603  81.193 113.056  0.00  0.00     0.109 C 
ATOM     16  O   LIG d   1      -3.478  80.819 115.268  0.00  0.00    -0.276 OA
ATOM     17  H   LIG d   1      -1.487  79.000 113.621  0.00  0.00     0.149 HD
ENDBRANCH   6  13
BRANCH   5  18
ATOM     18  N   LIG d   1      -0.080  79.287 116.720  0.00  0.00     0.381 N 
ATOM     19  H   LIG d   1       0.917  79.214 116.684  0.00  0.00    -0.090 HD
ATOM     20  H   LIG d   1      -0.355  79.368 117.683  0.00  0.00    -0.090 HD
ATOM     21  H   LIG d   1      -0.379  80.091 116.213  0.00  0.00    -0.090 HD
ENDBRANCH   5  18
BRANCH   3  22
ATOM     22  C   LIG d   1      -1.144  74.683 117.499  0.00  0.00     0.382 C 
ATOM     23  O   LIG d   1      -1.126  74.602 118.751  0.00  0.00    -0.241 OA
ATOM     24  O   LIG d   1      -0.809  73.698 116.816  0.00  0.00    -0.241 OA
ENDBRANCH   3  22
TORSDOF 7
ENDMDL
MODEL 9
REMARK VINA RESULT:      -4.9     12.064     14.990
REMARK  7 active torsions:
REMARK  status: ('A' for Active; 'I' for Inactive)
REMARK    1  A    between atoms: C_2  and  C_3 
REMARK    2  A    between atoms: C_3  and  O_6 
REMARK    3  A    between atoms: C_3  and  C_4 
REMARK    4  A    between atoms: C_7  and  O_6 
REMARK    5  A    between atoms: C_9  and  C_10 
REMARK    6  A    between atoms: N_15  and  C_14 
REMARK    7  A    between atoms: N_20  and  C_19 
REMARK       I    between atoms: C_22  and  N_20 
ROOT
ATOM      1  C   LIG d   1      -3.617  77.842 116.146  0.00  0.00     0.161 C 
ATOM      2  C   LIG d   1      -4.323  78.921 116.703  0.00  0.00     0.016 C 
ATOM      3  C   LIG d   1      -3.737  80.179 116.972  0.00  0.00     0.038 C 
ATOM      4  C   LIG d   1      -2.433  80.493 116.561  0.00  0.00     0.028 C 
ATOM      5  C   LIG d   1      -1.523  79.274 116.452  0.00  0.00    -0.047 C 
ATOM      6  C   LIG d   1      -2.223  78.200 115.589  0.00  0.00     0.091 C 
ENDROOT
BRANCH   1   7
ATOM      7  O   LIG d   1      -4.416  77.207 115.128  0.00  0.00    -0.368 OA
BRANCH   7   8
ATOM      8  C   LIG d   1      -5.119  76.005 115.527  0.00  0.00     0.119 C 
BRANCH   8   9
ATOM      9  C   LIG d   1      -4.718  74.887 114.545  0.00  0.00     0.028 C 
ATOM     10  C   LIG d   1      -5.297  75.108 113.137  0.00  0.00     0.006 C 
ENDBRANCH   8   9
BRANCH   8  11
ATOM     11  C   LIG d   1      -6.633  76.165 115.364  0.00  0.00     0.028 C 
ATOM     12  C   LIG d   1      -7.337  76.546 116.677  0.00  0.00     0.006 C 
ENDBRANCH   8  11
ENDBRANCH   7   8
ENDBRANCH   1   7
BRANCH   6  13
ATOM     13  N   LIG d   1      -1.437  76.942 115.501  0.00  0.00    -0.311 N 
ATOM     14  C   LIG d   1      -1.288  76.248 114.374  0.00  0.00     0.210 C 
ATOM     15  C   LIG d   1      -0.454  74.969 114.508  0.00  0.00     0.109 C 
ATOM     16  O   LIG d   1      -1.739  76.586 113.270  0.00  0.00    -0.276 OA
ATOM     17  H   LIG d   1      -1.009  76.611 116.344  0.00  0.00     0.149 HD
ENDBRANCH   6  13
BRANCH   5  18
ATOM     18  N   LIG d   1      -0.239  79.726 115.883  0.00  0.00     0.381 N 
ATOM     19  H   LIG d   1      -0.090  80.690 116.108  0.00  0.00    -0.090 HD
ATOM     20  H   LIG d   1      -0.278  79.639 114.883  0.00  0.00    -0.090 HD
ATOM     21  H   LIG d   1       0.507  79.174 116.244  0.00  0.00    -0.090 HD
ENDBRANCH   5  18
BRANCH   3  22
ATOM     22  C   LIG d   1      -4.445  81.126 117.697  0.00  0.00     0.382 C 
ATOM     23  O   LIG d   1      -5.565  81.517 117.289  0.00  0.00    -0.241 OA
ATOM     24  O   LIG d   1      -3.958  81.626 118.728  0.00  0.00    -0.241 OA
ENDBRANCH   3  22
TORSDOF 7
ENDMDL
