MODEL 1
REMARK VINA RESULT:      -5.3      0.000      0.000
REMARK  7 active torsions:
REMARK  status: ('A' for Active; 'I' for Inactive)
REMARK    1  A    between atoms: C_2  and  C_3 
REMARK    2  A    between atoms: C_3  and  O_6 
REMARK    3  A    between atoms: C_3  and  C_4 
REMARK    4  A    between atoms: C_7  and  O_6 
REMARK    5  A    between atoms: C_9  and  C_10 
REMARK    6  A    between atoms: N_15  and  C_14 
REMARK    7  A    between atoms: N_20  and  C_19 
REMARK       I    between atoms: C_22  and  N_20 
ROOT
ATOM      1  C   LIG d   1      -7.216  76.528 117.166  0.00  0.00     0.161 C 
ATOM      2  C   LIG d   1      -6.784  75.855 116.011  0.00  0.00     0.016 C 
ATOM      3  C   LIG d   1      -5.437  75.829 115.583  0.00  0.00     0.038 C 
ATOM      4  C   LIG d   1      -4.399  76.352 116.369  0.00  0.00     0.028 C 
ATOM      5  C   LIG d   1      -4.848  77.479 117.292  0.00  0.00    -0.047 C 
ATOM      6  C   LIG d   1      -6.082  77.010 118.095  0.00  0.00     0.091 C 
ENDROOT
BRANCH   1   7
ATOM      7  O   LIG d   1      -8.144  75.701 117.895  0.00  0.00    -0.368 OA
BRANCH   7   8
ATOM      8  C   LIG d   1      -9.437  75.494 117.274  0.00  0.00     0.119 C 
BRANCH   8   9
ATOM      9  C   LIG d   1     -10.501  76.105 118.207  0.00  0.00     0.028 C 
ATOM     10  C   LIG d   1      -9.996  77.366 118.928  0.00  0.00     0.006 C 
ENDBRANCH   8   9
BRANCH   8  11
ATOM     11  C   LIG d   1      -9.781  74.005 117.186  0.00  0.00     0.028 C 
ATOM     12  C   LIG d   1      -8.572  73.135 116.806  0.00  0.00     0.006 C 
ENDBRANCH   8  11
ENDBRANCH   7   8
ENDBRANCH   1   7
BRANCH   6  13
ATOM     13  N   LIG d   1      -6.636  78.082 118.962  0.00  0.00    -0.311 N 
ATOM     14  C   LIG d   1      -6.315  78.226 120.247  0.00  0.00     0.210 C 
ATOM     15  C   LIG d   1      -7.015  79.385 120.963  0.00  0.00     0.109 C 
ATOM     16  O   LIG d   1      -5.492  77.524 120.853  0.00  0.00    -0.276 OA
ATOM     17  H   LIG d   1      -7.288  78.716 118.543  0.00  0.00     0.149 HD
ENDBRANCH   6  13
BRANCH   5  18
ATOM     18  N   LIG d   1      -3.702  77.836 118.150  0.00  0.00     0.381 N 
ATOM     19  H   LIG d   1      -2.851  77.522 117.726  0.00  0.00    -0.090 HD
ATOM     20  H   LIG d   1      -3.802  77.372 119.036  0.00  0.00    -0.090 HD
ATOM     21  H   LIG d   1      -3.670  78.822 118.285  0.00  0.00    -0.090 HD
ENDBRANCH   5  18
BRANCH   3  22
ATOM     22  C   LIG d   1      -5.121  75.311 114.336  0.00  0.00     0.382 C 
ATOM     23  O   LIG d   1      -4.552  74.196 114.247  0.00  0.00    -0.241 OA
ATOM     24  O   LIG d   1      -5.358  75.963 113.302  0.00  0.00    -0.241 OA
ENDBRANCH   3  22
TORSDOF 7
ENDMDL
MODEL 2
REMARK VINA RESULT:      -5.2      2.260      4.968
REMARK  7 active torsions:
REMARK  status: ('A' for Active; 'I' for Inactive)
REMARK    1  A    between atoms: C_2  and  C_3 
REMARK    2  A    between atoms: C_3  and  O_6 
REMARK    3  A    between atoms: C_3  and  C_4 
REMARK    4  A    between atoms: C_7  and  O_6 
REMARK    5  A    between atoms: C_9  and  C_10 
REMARK    6  A    between atoms: N_15  and  C_14 
REMARK    7  A    between atoms: N_20  and  C_19 
REMARK       I    between atoms: C_22  and  N_20 
ROOT
ATOM      1  C   LIG d   1      -7.807  76.697 118.208  0.00  0.00     0.161 C 
ATOM      2  C   LIG d   1      -9.039  77.186 118.674  0.00  0.00     0.016 C 
ATOM      3  C   LIG d   1      -9.200  78.467 119.249  0.00  0.00     0.038 C 
ATOM      4  C   LIG d   1      -8.163  79.412 119.258  0.00  0.00     0.028 C 
ATOM      5  C   LIG d   1      -6.773  78.784 119.258  0.00  0.00    -0.047 C 
ATOM      6  C   LIG d   1      -6.687  77.754 118.109  0.00  0.00     0.091 C 
ENDROOT
BRANCH   1   7
ATOM      7  O   LIG d   1      -7.990  76.040 116.938  0.00  0.00    -0.368 OA
BRANCH   7   8
ATOM      8  C   LIG d   1      -7.822  74.601 116.935  0.00  0.00     0.119 C 
BRANCH   8   9
ATOM      9  C   LIG d   1      -7.082  74.225 115.637  0.00  0.00     0.028 C 
ATOM     10  C   LIG d   1      -6.410  75.438 114.972  0.00  0.00     0.006 C 
ENDBRANCH   8   9
BRANCH   8  11
ATOM     11  C   LIG d   1      -9.173  73.883 116.854  0.00  0.00     0.028 C 
ATOM     12  C   LIG d   1      -9.030  72.369 116.628  0.00  0.00     0.006 C 
ENDBRANCH   8  11
ENDBRANCH   7   8
ENDBRANCH   1   7
BRANCH   6  13
ATOM     13  N   LIG d   1      -5.388  77.033 118.090  0.00  0.00    -0.311 N 
ATOM     14  C   LIG d   1      -4.339  77.432 117.373  0.00  0.00     0.210 C 
ATOM     15  C   LIG d   1      -3.103  76.533 117.480  0.00  0.00     0.109 C 
ATOM     16  O   LIG d   1      -4.304  78.462 116.683  0.00  0.00    -0.276 OA
ATOM     17  H   LIG d   1      -5.319  76.203 118.646  0.00  0.00     0.149 HD
ENDBRANCH   6  13
BRANCH   5  18
ATOM     18  N   LIG d   1      -5.791  79.878 119.129  0.00  0.00     0.381 N 
ATOM     19  H   LIG d   1      -4.864  79.513 119.224  0.00  0.00    -0.090 HD
ATOM     20  H   LIG d   1      -5.946  80.543 119.866  0.00  0.00    -0.090 HD
ATOM     21  H   LIG d   1      -5.891  80.323 118.243  0.00  0.00    -0.090 HD
ENDBRANCH   5  18
BRANCH   3  22
ATOM     22  C   LIG d   1     -10.400  78.801 119.858  0.00  0.00     0.382 C 
ATOM     23  O   LIG d   1     -10.550  79.938 120.366  0.00  0.00    -0.241 OA
ATOM     24  O   LIG d   1     -11.319  77.964 119.945  0.00  0.00    -0.241 OA
ENDBRANCH   3  22
TORSDOF 7
ENDMDL
MODEL 3
REMARK VINA RESULT:      -5.2      2.001      4.952
REMARK  7 active torsions:
REMARK  status: ('A' for Active; 'I' for Inactive)
REMARK    1  A    between atoms: C_2  and  C_3 
REMARK    2  A    between atoms: C_3  and  O_6 
REMARK    3  A    between atoms: C_3  and  C_4 
REMARK    4  A    between atoms: C_7  and  O_6 
REMARK    5  A    between atoms: C_9  and  C_10 
REMARK    6  A    between atoms: N_15  and  C_14 
REMARK    7  A    between atoms: N_20  and  C_19 
REMARK       I    between atoms: C_22  and  N_20 
ROOT
ATOM      1  C   LIG d   1      -6.485  76.544 117.185  0.00  0.00     0.161 C 
ATOM      2  C   LIG d   1      -7.809  76.084 117.099  0.00  0.00     0.016 C 
ATOM      3  C   LIG d   1      -8.846  76.532 117.950  0.00  0.00     0.038 C 
ATOM      4  C   LIG d   1      -8.659  77.589 118.853  0.00  0.00     0.028 C 
ATOM      5  C   LIG d   1      -7.216  77.736 119.324  0.00  0.00    -0.047 C 
ATOM      6  C   LIG d   1      -6.287  77.779 118.090  0.00  0.00     0.091 C 
ENDROOT
BRANCH   1   7
ATOM      7  O   LIG d   1      -5.971  76.804 115.864  0.00  0.00    -0.368 OA
BRANCH   7   8
ATOM      8  C   LIG d   1      -5.172  75.749 115.273  0.00  0.00     0.119 C 
BRANCH   8   9
ATOM      9  C   LIG d   1      -3.704  76.219 115.283  0.00  0.00     0.028 C 
ATOM     10  C   LIG d   1      -2.772  75.218 115.985  0.00  0.00     0.006 C 
ENDBRANCH   8   9
BRANCH   8  11
ATOM     11  C   LIG d   1      -5.522  75.546 113.796  0.00  0.00     0.028 C 
ATOM     12  C   LIG d   1      -6.737  76.377 113.352  0.00  0.00     0.006 C 
ENDBRANCH   8  11
ENDBRANCH   7   8
ENDBRANCH   1   7
BRANCH   6  13
ATOM     13  N   LIG d   1      -4.850  77.836 118.464  0.00  0.00    -0.311 N 
ATOM     14  C   LIG d   1      -3.986  78.696 117.927  0.00  0.00     0.210 C 
ATOM     15  C   LIG d   1      -2.548  78.574 118.440  0.00  0.00     0.109 C 
ATOM     16  O   LIG d   1      -4.281  79.570 117.098  0.00  0.00    -0.276 OA
ATOM     17  H   LIG d   1      -4.531  77.183 119.153  0.00  0.00     0.149 HD
ENDBRANCH   6  13
BRANCH   5  18
ATOM     18  N   LIG d   1      -7.139  78.956 120.149  0.00  0.00     0.381 N 
ATOM     19  H   LIG d   1      -6.188  79.260 120.216  0.00  0.00    -0.090 HD
ATOM     20  H   LIG d   1      -7.468  78.745 121.074  0.00  0.00    -0.090 HD
ATOM     21  H   LIG d   1      -7.698  79.676 119.746  0.00  0.00    -0.090 HD
ENDBRANCH   5  18
BRANCH   3  22
ATOM     22  C   LIG d   1     -10.076  75.892 117.931  0.00  0.00     0.382 C 
ATOM     23  O   LIG d   1     -11.076  76.440 118.452  0.00  0.00    -0.241 OA
ATOM     24  O   LIG d   1     -10.188  74.753 117.438  0.00  0.00    -0.241 OA
ENDBRANCH   3  22
TORSDOF 7
ENDMDL
MODEL 4
REMARK VINA RESULT:      -5.1      2.644      5.005
REMARK  7 active torsions:
REMARK  status: ('A' for Active; 'I' for Inactive)
REMARK    1  A    between atoms: C_2  and  C_3 
REMARK    2  A    between atoms: C_3  and  O_6 
REMARK    3  A    between atoms: C_3  and  C_4 
REMARK    4  A    between atoms: C_7  and  O_6 
REMARK    5  A    between atoms: C_9  and  C_10 
REMARK    6  A    between atoms: N_15  and  C_14 
REMARK    7  A    between atoms: N_20  and  C_19 
REMARK       I    between atoms: C_22  and  N_20 
ROOT
ATOM      1  C   LIG d   1      -7.691  77.397 119.520  0.00  0.00     0.161 C 
ATOM      2  C   LIG d   1      -8.859  78.152 119.716  0.00  0.00     0.016 C 
ATOM      3  C   LIG d   1      -8.961  79.526 119.395  0.00  0.00     0.038 C 
ATOM      4  C   LIG d   1      -7.942  80.205 118.711  0.00  0.00     0.028 C 
ATOM      5  C   LIG d   1      -6.556  79.614 118.947  0.00  0.00    -0.047 C 
ATOM      6  C   LIG d   1      -6.605  78.093 118.672  0.00  0.00     0.091 C 
ENDROOT
BRANCH   1   7
ATOM      7  O   LIG d   1      -8.027  76.117 118.950  0.00  0.00    -0.368 OA
BRANCH   7   8
ATOM      8  C   LIG d   1      -8.500  76.133 117.581  0.00  0.00     0.119 C 
BRANCH   8   9
ATOM      9  C   LIG d   1      -9.886  75.460 117.562  0.00  0.00     0.028 C 
ATOM     10  C   LIG d   1      -9.825  74.004 117.068  0.00  0.00     0.006 C 
ENDBRANCH   8   9
BRANCH   8  11
ATOM     11  C   LIG d   1      -7.617  75.268 116.676  0.00  0.00     0.028 C 
ATOM     12  C   LIG d   1      -6.999  76.061 115.513  0.00  0.00     0.006 C 
ENDBRANCH   8  11
ENDBRANCH   7   8
ENDBRANCH   1   7
BRANCH   6  13
ATOM     13  N   LIG d   1      -5.311  77.423 118.961  0.00  0.00    -0.311 N 
ATOM     14  C   LIG d   1      -4.350  77.263 118.053  0.00  0.00     0.210 C 
ATOM     15  C   LIG d   1      -3.103  76.527 118.553  0.00  0.00     0.109 C 
ATOM     16  O   LIG d   1      -4.398  77.689 116.889  0.00  0.00    -0.276 OA
ATOM     17  H   LIG d   1      -5.175  77.074 119.889  0.00  0.00     0.149 HD
ENDBRANCH   6  13
BRANCH   5  18
ATOM     18  N   LIG d   1      -5.611  80.329 118.069  0.00  0.00     0.381 N 
ATOM     19  H   LIG d   1      -4.911  80.782 118.622  0.00  0.00    -0.090 HD
ATOM     20  H   LIG d   1      -6.112  81.034 117.557  0.00  0.00    -0.090 HD
ATOM     21  H   LIG d   1      -5.183  79.690 117.436  0.00  0.00    -0.090 HD
ENDBRANCH   5  18
BRANCH   3  22
ATOM     22  C   LIG d   1     -10.077  80.244 119.795  0.00  0.00     0.382 C 
ATOM     23  O   LIG d   1     -10.737  79.872 120.796  0.00  0.00    -0.241 OA
ATOM     24  O   LIG d   1     -10.460  81.233 119.142  0.00  0.00    -0.241 OA
ENDBRANCH   3  22
TORSDOF 7
ENDMDL
MODEL 5
REMARK VINA RESULT:      -4.9     13.997     16.238
REMARK  7 active torsions:
REMARK  status: ('A' for Active; 'I' for Inactive)
REMARK    1  A    between atoms: C_2  and  C_3 
REMARK    2  A    between atoms: C_3  and  O_6 
REMARK    3  A    between atoms: C_3  and  C_4 
REMARK    4  A    between atoms: C_7  and  O_6 
REMARK    5  A    between atoms: C_9  and  C_10 
REMARK    6  A    between atoms: N_15  and  C_14 
REMARK    7  A    between atoms: N_20  and  C_19 
REMARK       I    between atoms: C_22  and  N_20 
ROOT
ATOM      1  C   LIG d   1       2.107  89.199 116.885  0.00  0.00     0.161 C 
ATOM      2  C   LIG d   1       2.556  90.496 117.187  0.00  0.00     0.016 C 
ATOM      3  C   LIG d   1       3.722  91.066 116.627  0.00  0.00     0.038 C 
ATOM      4  C   LIG d   1       4.441  90.430 115.604  0.00  0.00     0.028 C 
ATOM      5  C   LIG d   1       4.314  88.910 115.630  0.00  0.00    -0.047 C 
ATOM      6  C   LIG d   1       2.816  88.532 115.688  0.00  0.00     0.091 C 
ENDROOT
BRANCH   1   7
ATOM      7  O   LIG d   1       0.681  89.212 116.679  0.00  0.00    -0.368 OA
BRANCH   7   8
ATOM      8  C   LIG d   1      -0.136  89.184 117.875  0.00  0.00     0.119 C 
BRANCH   8   9
ATOM      9  C   LIG d   1      -0.903  87.847 117.881  0.00  0.00     0.028 C 
ATOM     10  C   LIG d   1      -0.048  86.683 118.409  0.00  0.00     0.006 C 
ENDBRANCH   8   9
BRANCH   8  11
ATOM     11  C   LIG d   1      -1.215  90.270 117.838  0.00  0.00     0.028 C 
ATOM     12  C   LIG d   1      -2.612  89.734 118.190  0.00  0.00     0.006 C 
ENDBRANCH   8  11
ENDBRANCH   7   8
ENDBRANCH   1   7
BRANCH   6  13
ATOM     13  N   LIG d   1       2.606  87.066 115.800  0.00  0.00    -0.311 N 
ATOM     14  C   LIG d   1       1.988  86.340 114.870  0.00  0.00     0.210 C 
ATOM     15  C   LIG d   1       1.859  84.848 115.193  0.00  0.00     0.109 C 
ATOM     16  O   LIG d   1       1.563  86.785 113.793  0.00  0.00    -0.276 OA
ATOM     17  H   LIG d   1       2.947  86.618 116.628  0.00  0.00     0.149 HD
ENDBRANCH   6  13
BRANCH   5  18
ATOM     18  N   LIG d   1       4.997  88.386 114.432  0.00  0.00     0.381 N 
ATOM     19  H   LIG d   1       4.364  88.379 113.657  0.00  0.00    -0.090 HD
ATOM     20  H   LIG d   1       5.287  87.441 114.611  0.00  0.00    -0.090 HD
ATOM     21  H   LIG d   1       5.790  88.949 114.217  0.00  0.00    -0.090 HD
ENDBRANCH   5  18
BRANCH   3  22
ATOM     22  C   LIG d   1       4.203  92.270 117.119  0.00  0.00     0.382 C 
ATOM     23  O   LIG d   1       3.686  93.351 116.746  0.00  0.00    -0.241 OA
ATOM     24  O   LIG d   1       5.175  92.291 117.897  0.00  0.00    -0.241 OA
ENDBRANCH   3  22
TORSDOF 7
ENDMDL
MODEL 6
REMARK VINA RESULT:      -4.7     12.474     15.391
REMARK  7 active torsions:
REMARK  status: ('A' for Active; 'I' for Inactive)
REMARK    1  A    between atoms: C_2  and  C_3 
REMARK    2  A    between atoms: C_3  and  O_6 
REMARK    3  A    between atoms: C_3  and  C_4 
REMARK    4  A    between atoms: C_7  and  O_6 
REMARK    5  A    between atoms: C_9  and  C_10 
REMARK    6  A    between atoms: N_15  and  C_14 
REMARK    7  A    between atoms: N_20  and  C_19 
REMARK       I    between atoms: C_22  and  N_20 
ROOT
ATOM      1  C   LIG d   1     -15.868  64.735 117.277  0.00  0.00     0.161 C 
ATOM      2  C   LIG d   1     -15.901  66.138 117.209  0.00  0.00     0.016 C 
ATOM      3  C   LIG d   1     -15.203  66.977 118.108  0.00  0.00     0.038 C 
ATOM      4  C   LIG d   1     -14.297  66.465 119.049  0.00  0.00     0.028 C 
ATOM      5  C   LIG d   1     -14.618  65.039 119.485  0.00  0.00    -0.047 C 
ATOM      6  C   LIG d   1     -14.797  64.159 118.227  0.00  0.00     0.091 C 
ENDROOT
BRANCH   1   7
ATOM      7  O   LIG d   1     -15.711  64.186 115.953  0.00  0.00    -0.368 OA
BRANCH   7   8
ATOM      8  C   LIG d   1     -16.934  63.831 115.262  0.00  0.00     0.119 C 
BRANCH   8   9
ATOM      9  C   LIG d   1     -17.212  62.343 115.547  0.00  0.00     0.028 C 
ATOM     10  C   LIG d   1     -18.410  62.140 116.490  0.00  0.00     0.006 C 
ENDBRANCH   8   9
BRANCH   8  11
ATOM     11  C   LIG d   1     -16.763  63.928 113.743  0.00  0.00     0.028 C 
ATOM     12  C   LIG d   1     -17.938  64.641 113.055  0.00  0.00     0.006 C 
ENDBRANCH   8  11
ENDBRANCH   7   8
ENDBRANCH   1   7
BRANCH   6  13
ATOM     13  N   LIG d   1     -15.196  62.766 118.561  0.00  0.00    -0.311 N 
ATOM     14  C   LIG d   1     -14.449  61.701 118.276  0.00  0.00     0.210 C 
ATOM     15  C   LIG d   1     -15.055  60.357 118.690  0.00  0.00     0.109 C 
ATOM     16  O   LIG d   1     -13.327  61.745 117.749  0.00  0.00    -0.276 OA
ATOM     17  H   LIG d   1     -16.078  62.642 119.019  0.00  0.00     0.149 HD
ENDBRANCH   6  13
BRANCH   5  18
ATOM     18  N   LIG d   1     -13.520  64.582 120.358  0.00  0.00     0.381 N 
ATOM     19  H   LIG d   1     -13.614  63.602 120.535  0.00  0.00    -0.090 HD
ATOM     20  H   LIG d   1     -13.580  65.068 121.236  0.00  0.00    -0.090 HD
ATOM     21  H   LIG d   1     -12.642  64.767 119.927  0.00  0.00    -0.090 HD
ENDBRANCH   5  18
BRANCH   3  22
ATOM     22  C   LIG d   1     -15.439  68.343 118.097  0.00  0.00     0.382 C 
ATOM     23  O   LIG d   1     -15.636  68.954 119.175  0.00  0.00    -0.241 OA
ATOM     24  O   LIG d   1     -15.501  68.965 117.020  0.00  0.00    -0.241 OA
ENDBRANCH   3  22
TORSDOF 7
ENDMDL
MODEL 7
REMARK VINA RESULT:      -4.6     15.748     18.469
REMARK  7 active torsions:
REMARK  status: ('A' for Active; 'I' for Inactive)
REMARK    1  A    between atoms: C_2  and  C_3 
REMARK    2  A    between atoms: C_3  and  O_6 
REMARK    3  A    between atoms: C_3  and  C_4 
REMARK    4  A    between atoms: C_7  and  O_6 
REMARK    5  A    between atoms: C_9  and  C_10 
REMARK    6  A    between atoms: N_15  and  C_14 
REMARK    7  A    between atoms: N_20  and  C_19 
REMARK       I    between atoms: C_22  and  N_20 
ROOT
ATOM      1  C   LIG d   1      10.834  79.368 115.172  0.00  0.00     0.161 C 
ATOM      2  C   LIG d   1      10.697  78.019 114.808  0.00  0.00     0.016 C 
ATOM      3  C   LIG d   1       9.565  77.236 115.132  0.00  0.00     0.038 C 
ATOM      4  C   LIG d   1       8.419  77.797 115.715  0.00  0.00     0.028 C 
ATOM      5  C   LIG d   1       8.711  79.036 116.554  0.00  0.00    -0.047 C 
ATOM      6  C   LIG d   1       9.547  80.026 115.712  0.00  0.00     0.091 C 
ENDROOT
BRANCH   1   7
ATOM      7  O   LIG d   1      11.355  80.124 114.061  0.00  0.00    -0.368 OA
BRANCH   7   8
ATOM      8  C   LIG d   1      12.648  80.746 114.263  0.00  0.00     0.119 C 
BRANCH   8   9
ATOM      9  C   LIG d   1      13.532  80.380 113.055  0.00  0.00     0.028 C 
ATOM     10  C   LIG d   1      14.991  80.105 113.457  0.00  0.00     0.006 C 
ENDBRANCH   8   9
BRANCH   8  11
ATOM     11  C   LIG d   1      13.364  80.158 115.483  0.00  0.00     0.028 C 
ATOM     12  C   LIG d   1      13.526  81.173 116.625  0.00  0.00     0.006 C 
ENDBRANCH   8  11
ENDBRANCH   7   8
ENDBRANCH   1   7
BRANCH   6  13
ATOM     13  N   LIG d   1       9.948  81.231 116.485  0.00  0.00    -0.311 N 
ATOM     14  C   LIG d   1       9.847  82.472 116.014  0.00  0.00     0.210 C 
ATOM     15  C   LIG d   1      10.335  83.568 116.967  0.00  0.00     0.109 C 
ATOM     16  O   LIG d   1       9.369  82.772 114.909  0.00  0.00    -0.276 OA
ATOM     17  H   LIG d   1      10.317  81.081 117.404  0.00  0.00     0.149 HD
ENDBRANCH   6  13
BRANCH   5  18
ATOM     18  N   LIG d   1       7.417  79.596 116.988  0.00  0.00     0.381 N 
ATOM     19  H   LIG d   1       7.001  80.110 116.237  0.00  0.00    -0.090 HD
ATOM     20  H   LIG d   1       7.576  80.227 117.753  0.00  0.00    -0.090 HD
ATOM     21  H   LIG d   1       6.807  78.862 117.275  0.00  0.00    -0.090 HD
ENDBRANCH   5  18
BRANCH   3  22
ATOM     22  C   LIG d   1       9.588  75.868 114.907  0.00  0.00     0.382 C 
ATOM     23  O   LIG d   1      10.658  75.228 115.045  0.00  0.00    -0.241 OA
ATOM     24  O   LIG d   1       8.562  75.273 114.526  0.00  0.00    -0.241 OA
ENDBRANCH   3  22
TORSDOF 7
ENDMDL
MODEL 8
REMARK VINA RESULT:      -4.6     17.459     19.780
REMARK  7 active torsions:
REMARK  status: ('A' for Active; 'I' for Inactive)
REMARK    1  A    between atoms: C_2  and  C_3 
REMARK    2  A    between atoms: C_3  and  O_6 
REMARK    3  A    between atoms: C_3  and  C_4 
REMARK    4  A    between atoms: C_7  and  O_6 
REMARK    5  A    between atoms: C_9  and  C_10 
REMARK    6  A    between atoms: N_15  and  C_14 
REMARK    7  A    between atoms: N_20  and  C_19 
REMARK       I    between atoms: C_22  and  N_20 
ROOT
ATOM      1  C   LIG d   1       3.738  92.545 117.822  0.00  0.00     0.161 C 
ATOM      2  C   LIG d   1       4.353  93.560 118.575  0.00  0.00     0.016 C 
ATOM      3  C   LIG d   1       5.741  93.598 118.843  0.00  0.00     0.038 C 
ATOM      4  C   LIG d   1       6.636  92.698 118.246  0.00  0.00     0.028 C 
ATOM      5  C   LIG d   1       6.001  91.359 117.887  0.00  0.00    -0.047 C 
ATOM      6  C   LIG d   1       4.715  91.617 117.070  0.00  0.00     0.091 C 
ENDROOT
BRANCH   1   7
ATOM      7  O   LIG d   1       2.789  93.124 116.905  0.00  0.00    -0.368 OA
BRANCH   7   8
ATOM      8  C   LIG d   1       1.391  92.875 117.192  0.00  0.00     0.119 C 
BRANCH   8   9
ATOM      9  C   LIG d   1       0.789  94.186 117.734  0.00  0.00     0.028 C 
ATOM     10  C   LIG d   1      -0.357  94.712 116.855  0.00  0.00     0.006 C 
ENDBRANCH   8   9
BRANCH   8  11
ATOM     11  C   LIG d   1       1.228  91.855 118.324  0.00  0.00     0.028 C 
ATOM     12  C   LIG d   1       0.523  90.568 117.869  0.00  0.00     0.006 C 
ENDBRANCH   8  11
ENDBRANCH   7   8
ENDBRANCH   1   7
BRANCH   6  13
ATOM     13  N   LIG d   1       3.985  90.362 116.750  0.00  0.00    -0.311 N 
ATOM     14  C   LIG d   1       3.735  89.956 115.506  0.00  0.00     0.210 C 
ATOM     15  C   LIG d   1       2.952  88.644 115.399  0.00  0.00     0.109 C 
ATOM     16  O   LIG d   1       4.115  90.542 114.481  0.00  0.00    -0.276 OA
ATOM     17  H   LIG d   1       3.668  89.809 117.522  0.00  0.00     0.149 HD
ENDBRANCH   6  13
BRANCH   5  18
ATOM     18  N   LIG d   1       7.007  90.572 117.150  0.00  0.00     0.381 N 
ATOM     19  H   LIG d   1       7.922  90.927 117.341  0.00  0.00    -0.090 HD
ATOM     20  H   LIG d   1       6.833  90.663 116.164  0.00  0.00    -0.090 HD
ATOM     21  H   LIG d   1       6.952  89.613 117.416  0.00  0.00    -0.090 HD
ENDBRANCH   5  18
BRANCH   3  22
ATOM     22  C   LIG d   1       6.240  94.520 119.750  0.00  0.00     0.382 C 
ATOM     23  O   LIG d   1       5.539  95.501 120.097  0.00  0.00    -0.241 OA
ATOM     24  O   LIG d   1       7.399  94.408 120.192  0.00  0.00    -0.241 OA
ENDBRANCH   3  22
TORSDOF 7
ENDMDL
MODEL 9
REMARK VINA RESULT:      -4.6     14.867     16.879
REMARK  7 active torsions:
REMARK  status: ('A' for Active; 'I' for Inactive)
REMARK    1  A    between atoms: C_2  and  C_3 
REMARK    2  A    between atoms: C_3  and  O_6 
REMARK    3  A    between atoms: C_3  and  C_4 
REMARK    4  A    between atoms: C_7  and  O_6 
REMARK    5  A    between atoms: C_9  and  C_10 
REMARK    6  A    between atoms: N_15  and  C_14 
REMARK    7  A    between atoms: N_20  and  C_19 
REMARK       I    between atoms: C_22  and  N_20 
ROOT
ATOM      1  C   LIG d   1       0.110  91.068 117.443  0.00  0.00     0.161 C 
ATOM      2  C   LIG d   1       1.496  91.171 117.236  0.00  0.00     0.016 C 
ATOM      3  C   LIG d   1       2.193  92.401 117.235  0.00  0.00     0.038 C 
ATOM      4  C   LIG d   1       1.571  93.606 117.594  0.00  0.00     0.028 C 
ATOM      5  C   LIG d   1       0.072  93.620 117.317  0.00  0.00    -0.047 C 
ATOM      6  C   LIG d   1      -0.566  92.360 117.946  0.00  0.00     0.091 C 
ENDROOT
BRANCH   1   7
ATOM      7  O   LIG d   1      -0.170  89.974 118.339  0.00  0.00    -0.368 OA
BRANCH   7   8
ATOM      8  C   LIG d   1      -0.854  88.836 117.761  0.00  0.00     0.119 C 
BRANCH   8   9
ATOM      9  C   LIG d   1      -1.723  88.207 118.868  0.00  0.00     0.028 C 
ATOM     10  C   LIG d   1      -2.266  89.255 119.854  0.00  0.00     0.006 C 
ENDBRANCH   8   9
BRANCH   8  11
ATOM     11  C   LIG d   1       0.135  87.741 117.351  0.00  0.00     0.028 C 
ATOM     12  C   LIG d   1       1.253  87.529 118.384  0.00  0.00     0.006 C 
ENDBRANCH   8  11
ENDBRANCH   7   8
ENDBRANCH   1   7
BRANCH   6  13
ATOM     13  N   LIG d   1      -2.019  92.252 117.649  0.00  0.00    -0.311 N 
ATOM     14  C   LIG d   1      -2.967  92.759 118.435  0.00  0.00     0.210 C 
ATOM     15  C   LIG d   1      -4.402  92.518 117.955  0.00  0.00     0.109 C 
ATOM     16  O   LIG d   1      -2.755  93.413 119.468  0.00  0.00    -0.276 OA
ATOM     17  H   LIG d   1      -2.279  91.764 116.815  0.00  0.00     0.149 HD
ENDBRANCH   6  13
BRANCH   5  18
ATOM     18  N   LIG d   1      -0.471  94.878 117.863  0.00  0.00     0.381 N 
ATOM     19  H   LIG d   1      -0.133  95.016 118.794  0.00  0.00    -0.090 HD
ATOM     20  H   LIG d   1      -1.473  94.811 117.898  0.00  0.00    -0.090 HD
ATOM     21  H   LIG d   1      -0.202  95.644 117.287  0.00  0.00    -0.090 HD
ENDBRANCH   5  18
BRANCH   3  22
ATOM     22  C   LIG d   1       3.520  92.439 116.834  0.00  0.00     0.382 C 
ATOM     23  O   LIG d   1       4.192  93.487 116.986  0.00  0.00    -0.241 OA
ATOM     24  O   LIG d   1       4.041  91.452 116.280  0.00  0.00    -0.241 OA
ENDBRANCH   3  22
TORSDOF 7
ENDMDL
