MODEL 1
REMARK VINA RESULT:      -6.0      0.000      0.000
REMARK  7 active torsions:
REMARK  status: ('A' for Active; 'I' for Inactive)
REMARK    1  A    between atoms: C_2  and  C_3 
REMARK    2  A    between atoms: C_3  and  O_6 
REMARK    3  A    between atoms: C_3  and  C_4 
REMARK    4  A    between atoms: C_7  and  O_6 
REMARK    5  A    between atoms: C_9  and  C_10 
REMARK    6  A    between atoms: N_15  and  C_14 
REMARK    7  A    between atoms: N_20  and  C_19 
REMARK       I    between atoms: C_22  and  N_20 
ROOT
ATOM      1  C   LIG d   1      -6.576  74.362 117.183  0.00  0.00     0.161 C 
ATOM      2  C   LIG d   1      -5.316  73.781 116.967  0.00  0.00     0.016 C 
ATOM      3  C   LIG d   1      -4.097  74.431 117.269  0.00  0.00     0.038 C 
ATOM      4  C   LIG d   1      -4.060  75.655 117.954  0.00  0.00     0.028 C 
ATOM      5  C   LIG d   1      -5.305  76.508 117.738  0.00  0.00    -0.047 C 
ATOM      6  C   LIG d   1      -6.558  75.651 118.031  0.00  0.00     0.091 C 
ENDROOT
BRANCH   1   7
ATOM      7  O   LIG d   1      -7.468  73.391 117.766  0.00  0.00    -0.368 OA
BRANCH   7   8
ATOM      8  C   LIG d   1      -8.164  72.525 116.836  0.00  0.00     0.119 C 
BRANCH   8   9
ATOM      9  C   LIG d   1      -9.675  72.767 117.020  0.00  0.00     0.028 C 
ATOM     10  C   LIG d   1     -10.143  74.077 116.365  0.00  0.00     0.006 C 
ENDBRANCH   8   9
BRANCH   8  11
ATOM     11  C   LIG d   1      -7.945  71.049 117.178  0.00  0.00     0.028 C 
ATOM     12  C   LIG d   1      -9.261  70.273 117.339  0.00  0.00     0.006 C 
ENDBRANCH   8  11
ENDBRANCH   7   8
ENDBRANCH   1   7
BRANCH   6  13
ATOM     13  N   LIG d   1      -7.822  76.384 117.763  0.00  0.00    -0.311 N 
ATOM     14  C   LIG d   1      -8.489  77.061 118.696  0.00  0.00     0.210 C 
ATOM     15  C   LIG d   1      -9.780  77.728 118.212  0.00  0.00     0.109 C 
ATOM     16  O   LIG d   1      -8.117  77.200 119.871  0.00  0.00    -0.276 OA
ATOM     17  H   LIG d   1      -8.179  76.351 116.828  0.00  0.00     0.149 HD
ENDBRANCH   6  13
BRANCH   5  18
ATOM     18  N   LIG d   1      -5.195  77.689 118.615  0.00  0.00     0.381 N 
ATOM     19  H   LIG d   1      -4.484  78.302 118.269  0.00  0.00    -0.090 HD
ATOM     20  H   LIG d   1      -4.929  77.386 119.536  0.00  0.00    -0.090 HD
ATOM     21  H   LIG d   1      -6.067  78.168 118.654  0.00  0.00    -0.090 HD
ENDBRANCH   5  18
BRANCH   3  22
ATOM     22  C   LIG d   1      -2.898  73.874 116.850  0.00  0.00     0.382 C 
ATOM     23  O   LIG d   1      -2.459  74.124 115.702  0.00  0.00    -0.241 OA
ATOM     24  O   LIG d   1      -2.274  73.090 117.589  0.00  0.00    -0.241 OA
ENDBRANCH   3  22
TORSDOF 7
ENDMDL
MODEL 2
REMARK VINA RESULT:      -5.9      1.714      5.120
REMARK  7 active torsions:
REMARK  status: ('A' for Active; 'I' for Inactive)
REMARK    1  A    between atoms: C_2  and  C_3 
REMARK    2  A    between atoms: C_3  and  O_6 
REMARK    3  A    between atoms: C_3  and  C_4 
REMARK    4  A    between atoms: C_7  and  O_6 
REMARK    5  A    between atoms: C_9  and  C_10 
REMARK    6  A    between atoms: N_15  and  C_14 
REMARK    7  A    between atoms: N_20  and  C_19 
REMARK       I    between atoms: C_22  and  N_20 
ROOT
ATOM      1  C   LIG d   1      -7.525  75.848 117.817  0.00  0.00     0.161 C 
ATOM      2  C   LIG d   1      -8.644  76.662 118.062  0.00  0.00     0.016 C 
ATOM      3  C   LIG d   1      -8.585  78.074 118.108  0.00  0.00     0.038 C 
ATOM      4  C   LIG d   1      -7.423  78.779 117.761  0.00  0.00     0.028 C 
ATOM      5  C   LIG d   1      -6.140  77.988 118.000  0.00  0.00    -0.047 C 
ATOM      6  C   LIG d   1      -6.272  76.603 117.326  0.00  0.00     0.091 C 
ENDROOT
BRANCH   1   7
ATOM      7  O   LIG d   1      -7.875  74.802 116.890  0.00  0.00    -0.368 OA
BRANCH   7   8
ATOM      8  C   LIG d   1      -8.278  73.540 117.475  0.00  0.00     0.119 C 
BRANCH   8   9
ATOM      9  C   LIG d   1      -7.148  72.525 117.212  0.00  0.00     0.028 C 
ATOM     10  C   LIG d   1      -7.671  71.085 117.081  0.00  0.00     0.006 C 
ENDBRANCH   8   9
BRANCH   8  11
ATOM     11  C   LIG d   1      -9.510  72.966 116.770  0.00  0.00     0.028 C 
ATOM     12  C   LIG d   1     -10.446  74.057 116.225  0.00  0.00     0.006 C 
ENDBRANCH   8  11
ENDBRANCH   7   8
ENDBRANCH   1   7
BRANCH   6  13
ATOM     13  N   LIG d   1      -5.094  75.734 117.583  0.00  0.00    -0.311 N 
ATOM     14  C   LIG d   1      -4.503  75.003 116.640  0.00  0.00     0.210 C 
ATOM     15  C   LIG d   1      -3.317  74.162 117.122  0.00  0.00     0.109 C 
ATOM     16  O   LIG d   1      -4.829  74.995 115.443  0.00  0.00    -0.276 OA
ATOM     17  H   LIG d   1      -4.745  75.705 118.521  0.00  0.00     0.149 HD
ENDBRANCH   6  13
BRANCH   5  18
ATOM     18  N   LIG d   1      -5.019  78.786 117.468  0.00  0.00     0.381 N 
ATOM     19  H   LIG d   1      -5.195  79.020 116.511  0.00  0.00    -0.090 HD
ATOM     20  H   LIG d   1      -4.180  78.235 117.509  0.00  0.00    -0.090 HD
ATOM     21  H   LIG d   1      -4.907  79.617 118.006  0.00  0.00    -0.090 HD
ENDBRANCH   5  18
BRANCH   3  22
ATOM     22  C   LIG d   1      -9.686  78.794 118.544  0.00  0.00     0.382 C 
ATOM     23  O   LIG d   1     -10.104  79.769 117.873  0.00  0.00    -0.241 OA
ATOM     24  O   LIG d   1     -10.241  78.509 119.623  0.00  0.00    -0.241 OA
ENDBRANCH   3  22
TORSDOF 7
ENDMDL
MODEL 3
REMARK VINA RESULT:      -5.6     15.405     18.408
REMARK  7 active torsions:
REMARK  status: ('A' for Active; 'I' for Inactive)
REMARK    1  A    between atoms: C_2  and  C_3 
REMARK    2  A    between atoms: C_3  and  O_6 
REMARK    3  A    between atoms: C_3  and  C_4 
REMARK    4  A    between atoms: C_7  and  O_6 
REMARK    5  A    between atoms: C_9  and  C_10 
REMARK    6  A    between atoms: N_15  and  C_14 
REMARK    7  A    between atoms: N_20  and  C_19 
REMARK       I    between atoms: C_22  and  N_20 
ROOT
ATOM      1  C   LIG d   1      -5.759  92.571 117.631  0.00  0.00     0.161 C 
ATOM      2  C   LIG d   1      -6.664  91.604 117.165  0.00  0.00     0.016 C 
ATOM      3  C   LIG d   1      -6.276  90.308 116.752  0.00  0.00     0.038 C 
ATOM      4  C   LIG d   1      -4.965  89.839 116.922  0.00  0.00     0.028 C 
ATOM      5  C   LIG d   1      -3.918  90.948 116.918  0.00  0.00    -0.047 C 
ATOM      6  C   LIG d   1      -4.341  92.040 117.928  0.00  0.00     0.091 C 
ENDROOT
BRANCH   1   7
ATOM      7  O   LIG d   1      -6.301  93.228 118.794  0.00  0.00    -0.368 OA
BRANCH   7   8
ATOM      8  C   LIG d   1      -6.884  94.536 118.573  0.00  0.00     0.119 C 
BRANCH   8   9
ATOM      9  C   LIG d   1      -6.419  95.450 119.723  0.00  0.00     0.028 C 
ATOM     10  C   LIG d   1      -5.342  94.789 120.599  0.00  0.00     0.006 C 
ENDBRANCH   8   9
BRANCH   8  11
ATOM     11  C   LIG d   1      -8.411  94.491 118.684  0.00  0.00     0.028 C 
ATOM     12  C   LIG d   1      -8.903  93.492 119.744  0.00  0.00     0.006 C 
ENDBRANCH   8  11
ENDBRANCH   7   8
ENDBRANCH   1   7
BRANCH   6  13
ATOM     13  N   LIG d   1      -3.415  93.202 117.926  0.00  0.00    -0.311 N 
ATOM     14  C   LIG d   1      -2.378  93.315 118.754  0.00  0.00     0.210 C 
ATOM     15  C   LIG d   1      -1.563  94.603 118.599  0.00  0.00     0.109 C 
ATOM     16  O   LIG d   1      -2.036  92.456 119.581  0.00  0.00    -0.276 OA
ATOM     17  H   LIG d   1      -3.600  93.932 117.266  0.00  0.00     0.149 HD
ENDBRANCH   6  13
BRANCH   5  18
ATOM     18  N   LIG d   1      -2.617  90.334 117.242  0.00  0.00     0.381 N 
ATOM     19  H   LIG d   1      -2.201  89.964 116.410  0.00  0.00    -0.090 HD
ATOM     20  H   LIG d   1      -2.765  89.576 117.884  0.00  0.00    -0.090 HD
ATOM     21  H   LIG d   1      -2.012  91.012 117.651  0.00  0.00    -0.090 HD
ENDBRANCH   5  18
BRANCH   3  22
ATOM     22  C   LIG d   1      -7.196  89.482 116.126  0.00  0.00     0.382 C 
ATOM     23  O   LIG d   1      -7.339  89.534 114.880  0.00  0.00    -0.241 OA
ATOM     24  O   LIG d   1      -7.915  88.716 116.794  0.00  0.00    -0.241 OA
ENDBRANCH   3  22
TORSDOF 7
ENDMDL
MODEL 4
REMARK VINA RESULT:      -5.4      2.468      5.810
REMARK  7 active torsions:
REMARK  status: ('A' for Active; 'I' for Inactive)
REMARK    1  A    between atoms: C_2  and  C_3 
REMARK    2  A    between atoms: C_3  and  O_6 
REMARK    3  A    between atoms: C_3  and  C_4 
REMARK    4  A    between atoms: C_7  and  O_6 
REMARK    5  A    between atoms: C_9  and  C_10 
REMARK    6  A    between atoms: N_15  and  C_14 
REMARK    7  A    between atoms: N_20  and  C_19 
REMARK       I    between atoms: C_22  and  N_20 
ROOT
ATOM      1  C   LIG d   1      -7.115  76.318 117.201  0.00  0.00     0.161 C 
ATOM      2  C   LIG d   1      -8.297  75.561 117.152  0.00  0.00     0.016 C 
ATOM      3  C   LIG d   1      -8.315  74.155 116.997  0.00  0.00     0.038 C 
ATOM      4  C   LIG d   1      -7.140  73.391 117.031  0.00  0.00     0.028 C 
ATOM      5  C   LIG d   1      -5.904  74.158 116.572  0.00  0.00    -0.047 C 
ATOM      6  C   LIG d   1      -5.822  75.490 117.352  0.00  0.00     0.091 C 
ENDROOT
BRANCH   1   7
ATOM      7  O   LIG d   1      -7.207  77.300 118.253  0.00  0.00    -0.368 OA
BRANCH   7   8
ATOM      8  C   LIG d   1      -7.816  78.564 117.893  0.00  0.00     0.119 C 
BRANCH   8   9
ATOM      9  C   LIG d   1      -6.708  79.635 117.915  0.00  0.00     0.028 C 
ATOM     10  C   LIG d   1      -7.273  81.065 117.900  0.00  0.00     0.006 C 
ENDBRANCH   8   9
BRANCH   8  11
ATOM     11  C   LIG d   1      -8.834  79.012 118.946  0.00  0.00     0.028 C 
ATOM     12  C   LIG d   1     -10.151  78.223 118.876  0.00  0.00     0.006 C 
ENDBRANCH   8  11
ENDBRANCH   7   8
ENDBRANCH   1   7
BRANCH   6  13
ATOM     13  N   LIG d   1      -4.688  76.340 116.903  0.00  0.00    -0.311 N 
ATOM     14  C   LIG d   1      -4.420  76.588 115.623  0.00  0.00     0.210 C 
ATOM     15  C   LIG d   1      -3.194  77.473 115.379  0.00  0.00     0.109 C 
ATOM     16  O   LIG d   1      -5.100  76.186 114.667  0.00  0.00    -0.276 OA
ATOM     17  H   LIG d   1      -4.104  76.733 117.615  0.00  0.00     0.149 HD
ENDBRANCH   6  13
BRANCH   5  18
ATOM     18  N   LIG d   1      -4.733  73.288 116.788  0.00  0.00     0.381 N 
ATOM     19  H   LIG d   1      -4.816  72.462 116.229  0.00  0.00    -0.090 HD
ATOM     20  H   LIG d   1      -4.707  73.012 117.754  0.00  0.00    -0.090 HD
ATOM     21  H   LIG d   1      -3.897  73.776 116.552  0.00  0.00    -0.090 HD
ENDBRANCH   5  18
BRANCH   3  22
ATOM     22  C   LIG d   1      -9.517  73.505 116.764  0.00  0.00     0.382 C 
ATOM     23  O   LIG d   1     -10.591  74.154 116.760  0.00  0.00    -0.241 OA
ATOM     24  O   LIG d   1      -9.547  72.270 116.603  0.00  0.00    -0.241 OA
ENDBRANCH   3  22
TORSDOF 7
ENDMDL
MODEL 5
REMARK VINA RESULT:      -5.2     14.873     17.493
REMARK  7 active torsions:
REMARK  status: ('A' for Active; 'I' for Inactive)
REMARK    1  A    between atoms: C_2  and  C_3 
REMARK    2  A    between atoms: C_3  and  O_6 
REMARK    3  A    between atoms: C_3  and  C_4 
REMARK    4  A    between atoms: C_7  and  O_6 
REMARK    5  A    between atoms: C_9  and  C_10 
REMARK    6  A    between atoms: N_15  and  C_14 
REMARK    7  A    between atoms: N_20  and  C_19 
REMARK       I    between atoms: C_22  and  N_20 
ROOT
ATOM      1  C   LIG d   1      -3.842  90.828 117.995  0.00  0.00     0.161 C 
ATOM      2  C   LIG d   1      -4.660  90.041 117.167  0.00  0.00     0.016 C 
ATOM      3  C   LIG d   1      -5.892  90.490 116.637  0.00  0.00     0.038 C 
ATOM      4  C   LIG d   1      -6.319  91.819 116.777  0.00  0.00     0.028 C 
ATOM      5  C   LIG d   1      -5.771  92.503 118.025  0.00  0.00    -0.047 C 
ATOM      6  C   LIG d   1      -4.237  92.317 118.067  0.00  0.00     0.091 C 
ENDROOT
BRANCH   1   7
ATOM      7  O   LIG d   1      -2.465  90.694 117.590  0.00  0.00    -0.368 OA
BRANCH   7   8
ATOM      8  C   LIG d   1      -1.585  90.034 118.533  0.00  0.00     0.119 C 
BRANCH   8   9
ATOM      9  C   LIG d   1      -0.227  90.762 118.486  0.00  0.00     0.028 C 
ATOM     10  C   LIG d   1       0.562  90.450 117.203  0.00  0.00     0.006 C 
ENDBRANCH   8   9
BRANCH   8  11
ATOM     11  C   LIG d   1      -1.288  88.594 118.104  0.00  0.00     0.028 C 
ATOM     12  C   LIG d   1      -2.151  87.562 118.846  0.00  0.00     0.006 C 
ENDBRANCH   8  11
ENDBRANCH   7   8
ENDBRANCH   1   7
BRANCH   6  13
ATOM     13  N   LIG d   1      -3.631  92.884 119.300  0.00  0.00    -0.311 N 
ATOM     14  C   LIG d   1      -2.542  93.651 119.296  0.00  0.00     0.210 C 
ATOM     15  C   LIG d   1      -2.072  94.113 120.679  0.00  0.00     0.109 C 
ATOM     16  O   LIG d   1      -1.939  94.018 118.276  0.00  0.00    -0.276 OA
ATOM     17  H   LIG d   1      -4.075  92.662 120.170  0.00  0.00     0.149 HD
ENDBRANCH   6  13
BRANCH   5  18
ATOM     18  N   LIG d   1      -6.181  93.919 117.974  0.00  0.00     0.381 N 
ATOM     19  H   LIG d   1      -5.686  94.440 118.669  0.00  0.00    -0.090 HD
ATOM     20  H   LIG d   1      -7.164  93.980 118.174  0.00  0.00    -0.090 HD
ATOM     21  H   LIG d   1      -5.995  94.295 117.070  0.00  0.00    -0.090 HD
ENDBRANCH   5  18
BRANCH   3  22
ATOM     22  C   LIG d   1      -6.730  89.593 115.992  0.00  0.00     0.382 C 
ATOM     23  O   LIG d   1      -7.607  88.976 116.642  0.00  0.00    -0.241 OA
ATOM     24  O   LIG d   1      -6.591  89.362 114.776  0.00  0.00    -0.241 OA
ENDBRANCH   3  22
TORSDOF 7
ENDMDL
MODEL 6
REMARK VINA RESULT:      -5.2      2.159      5.781
REMARK  7 active torsions:
REMARK  status: ('A' for Active; 'I' for Inactive)
REMARK    1  A    between atoms: C_2  and  C_3 
REMARK    2  A    between atoms: C_3  and  O_6 
REMARK    3  A    between atoms: C_3  and  C_4 
REMARK    4  A    between atoms: C_7  and  O_6 
REMARK    5  A    between atoms: C_9  and  C_10 
REMARK    6  A    between atoms: N_15  and  C_14 
REMARK    7  A    between atoms: N_20  and  C_19 
REMARK       I    between atoms: C_22  and  N_20 
ROOT
ATOM      1  C   LIG d   1      -4.175  74.561 116.945  0.00  0.00     0.161 C 
ATOM      2  C   LIG d   1      -5.247  73.652 116.940  0.00  0.00     0.016 C 
ATOM      3  C   LIG d   1      -6.604  74.049 116.963  0.00  0.00     0.038 C 
ATOM      4  C   LIG d   1      -6.985  75.393 116.839  0.00  0.00     0.028 C 
ATOM      5  C   LIG d   1      -5.933  76.371 117.349  0.00  0.00    -0.047 C 
ATOM      6  C   LIG d   1      -4.573  76.031 116.696  0.00  0.00     0.091 C 
ENDROOT
BRANCH   1   7
ATOM      7  O   LIG d   1      -3.177  74.144 115.992  0.00  0.00    -0.368 OA
BRANCH   7   8
ATOM      8  C   LIG d   1      -1.909  73.715 116.544  0.00  0.00     0.119 C 
BRANCH   8   9
ATOM      9  C   LIG d   1      -2.088  73.586 118.070  0.00  0.00     0.028 C 
ATOM     10  C   LIG d   1      -0.885  72.908 118.747  0.00  0.00     0.006 C 
ENDBRANCH   8   9
BRANCH   8  11
ATOM     11  C   LIG d   1      -0.827  74.782 116.352  0.00  0.00     0.028 C 
ATOM     12  C   LIG d   1      -0.882  75.442 114.965  0.00  0.00     0.006 C 
ENDBRANCH   8  11
ENDBRANCH   7   8
ENDBRANCH   1   7
BRANCH   6  13
ATOM     13  N   LIG d   1      -3.470  76.887 117.205  0.00  0.00    -0.311 N 
ATOM     14  C   LIG d   1      -3.046  77.984 116.580  0.00  0.00     0.210 C 
ATOM     15  C   LIG d   1      -1.884  78.710 117.265  0.00  0.00     0.109 C 
ATOM     16  O   LIG d   1      -3.543  78.443 115.540  0.00  0.00    -0.276 OA
ATOM     17  H   LIG d   1      -3.031  76.606 118.059  0.00  0.00     0.149 HD
ENDBRANCH   6  13
BRANCH   5  18
ATOM     18  N   LIG d   1      -6.400  77.734 117.032  0.00  0.00     0.381 N 
ATOM     19  H   LIG d   1      -6.698  77.777 116.078  0.00  0.00    -0.090 HD
ATOM     20  H   LIG d   1      -5.637  78.376 117.154  0.00  0.00    -0.090 HD
ATOM     21  H   LIG d   1      -7.154  77.984 117.634  0.00  0.00    -0.090 HD
ENDBRANCH   5  18
BRANCH   3  22
ATOM     22  C   LIG d   1      -7.595  73.098 117.152  0.00  0.00     0.382 C 
ATOM     23  O   LIG d   1      -8.772  73.458 117.394  0.00  0.00    -0.241 OA
ATOM     24  O   LIG d   1      -7.318  71.884 117.128  0.00  0.00    -0.241 OA
ENDBRANCH   3  22
TORSDOF 7
ENDMDL
MODEL 7
REMARK VINA RESULT:      -5.1      2.049      5.210
REMARK  7 active torsions:
REMARK  status: ('A' for Active; 'I' for Inactive)
REMARK    1  A    between atoms: C_2  and  C_3 
REMARK    2  A    between atoms: C_3  and  O_6 
REMARK    3  A    between atoms: C_3  and  C_4 
REMARK    4  A    between atoms: C_7  and  O_6 
REMARK    5  A    between atoms: C_9  and  C_10 
REMARK    6  A    between atoms: N_15  and  C_14 
REMARK    7  A    between atoms: N_20  and  C_19 
REMARK       I    between atoms: C_22  and  N_20 
ROOT
ATOM      1  C   LIG d   1      -5.825  75.073 117.395  0.00  0.00     0.161 C 
ATOM      2  C   LIG d   1      -6.708  74.019 117.109  0.00  0.00     0.016 C 
ATOM      3  C   LIG d   1      -8.113  74.168 117.073  0.00  0.00     0.038 C 
ATOM      4  C   LIG d   1      -8.728  75.425 117.173  0.00  0.00     0.028 C 
ATOM      5  C   LIG d   1      -7.909  76.439 117.964  0.00  0.00    -0.047 C 
ATOM      6  C   LIG d   1      -6.471  76.475 117.397  0.00  0.00     0.091 C 
ENDROOT
BRANCH   1   7
ATOM      7  O   LIG d   1      -4.709  75.037 116.484  0.00  0.00    -0.368 OA
BRANCH   7   8
ATOM      8  C   LIG d   1      -3.392  75.046 117.088  0.00  0.00     0.119 C 
BRANCH   8   9
ATOM      9  C   LIG d   1      -2.536  76.070 116.317  0.00  0.00     0.028 C 
ATOM     10  C   LIG d   1      -3.338  76.805 115.230  0.00  0.00     0.006 C 
ENDBRANCH   8   9
BRANCH   8  11
ATOM     11  C   LIG d   1      -2.684  73.701 116.900  0.00  0.00     0.028 C 
ATOM     12  C   LIG d   1      -1.220  73.856 116.457  0.00  0.00     0.006 C 
ENDBRANCH   8  11
ENDBRANCH   7   8
ENDBRANCH   1   7
BRANCH   6  13
ATOM     13  N   LIG d   1      -5.580  77.380 118.168  0.00  0.00    -0.311 N 
ATOM     14  C   LIG d   1      -5.322  78.636 117.808  0.00  0.00     0.210 C 
ATOM     15  C   LIG d   1      -4.361  79.389 118.733  0.00  0.00     0.109 C 
ATOM     16  O   LIG d   1      -5.824  79.209 116.829  0.00  0.00    -0.276 OA
ATOM     17  H   LIG d   1      -5.155  77.007 118.994  0.00  0.00     0.149 HD
ENDBRANCH   6  13
BRANCH   5  18
ATOM     18  N   LIG d   1      -8.599  77.739 117.872  0.00  0.00     0.381 N 
ATOM     19  H   LIG d   1      -9.523  77.607 117.512  0.00  0.00    -0.090 HD
ATOM     20  H   LIG d   1      -8.094  78.331 117.236  0.00  0.00    -0.090 HD
ATOM     21  H   LIG d   1      -8.644  78.166 118.771  0.00  0.00    -0.090 HD
ENDBRANCH   5  18
BRANCH   3  22
ATOM     22  C   LIG d   1      -8.921  73.045 116.976  0.00  0.00     0.382 C 
ATOM     23  O   LIG d   1     -10.164  73.154 117.109  0.00  0.00    -0.241 OA
ATOM     24  O   LIG d   1      -8.419  71.919 116.801  0.00  0.00    -0.241 OA
ENDBRANCH   3  22
TORSDOF 7
ENDMDL
MODEL 8
REMARK VINA RESULT:      -5.0      2.108      5.276
REMARK  7 active torsions:
REMARK  status: ('A' for Active; 'I' for Inactive)
REMARK    1  A    between atoms: C_2  and  C_3 
REMARK    2  A    between atoms: C_3  and  O_6 
REMARK    3  A    between atoms: C_3  and  C_4 
REMARK    4  A    between atoms: C_7  and  O_6 
REMARK    5  A    between atoms: C_9  and  C_10 
REMARK    6  A    between atoms: N_15  and  C_14 
REMARK    7  A    between atoms: N_20  and  C_19 
REMARK       I    between atoms: C_22  and  N_20 
ROOT
ATOM      1  C   LIG d   1      -6.930  76.030 119.101  0.00  0.00     0.161 C 
ATOM      2  C   LIG d   1      -8.210  76.476 118.732  0.00  0.00     0.016 C 
ATOM      3  C   LIG d   1      -8.491  77.809 118.354  0.00  0.00     0.038 C 
ATOM      4  C   LIG d   1      -7.474  78.758 118.173  0.00  0.00     0.028 C 
ATOM      5  C   LIG d   1      -6.236  78.488 119.020  0.00  0.00    -0.047 C 
ATOM      6  C   LIG d   1      -5.789  77.024 118.803  0.00  0.00     0.091 C 
ENDROOT
BRANCH   1   7
ATOM      7  O   LIG d   1      -6.660  74.756 118.484  0.00  0.00    -0.368 OA
BRANCH   7   8
ATOM      8  C   LIG d   1      -7.022  74.635 117.086  0.00  0.00     0.119 C 
BRANCH   8   9
ATOM      9  C   LIG d   1      -7.777  73.303 116.917  0.00  0.00     0.028 C 
ATOM     10  C   LIG d   1      -9.289  73.506 116.722  0.00  0.00     0.006 C 
ENDBRANCH   8   9
BRANCH   8  11
ATOM     11  C   LIG d   1      -5.781  74.513 116.197  0.00  0.00     0.028 C 
ATOM     12  C   LIG d   1      -5.512  75.780 115.371  0.00  0.00     0.006 C 
ENDBRANCH   8  11
ENDBRANCH   7   8
ENDBRANCH   1   7
BRANCH   6  13
ATOM     13  N   LIG d   1      -4.633  76.651 119.659  0.00  0.00    -0.311 N 
ATOM     14  C   LIG d   1      -3.456  76.260 119.173  0.00  0.00     0.210 C 
ATOM     15  C   LIG d   1      -2.406  75.902 120.230  0.00  0.00     0.109 C 
ATOM     16  O   LIG d   1      -3.172  76.205 117.967  0.00  0.00    -0.276 OA
ATOM     17  H   LIG d   1      -4.766  76.697 120.650  0.00  0.00     0.149 HD
ENDBRANCH   6  13
BRANCH   5  18
ATOM     18  N   LIG d   1      -5.207  79.471 118.632  0.00  0.00     0.381 N 
ATOM     19  H   LIG d   1      -4.778  79.190 117.772  0.00  0.00    -0.090 HD
ATOM     20  H   LIG d   1      -4.498  79.498 119.343  0.00  0.00    -0.090 HD
ATOM     21  H   LIG d   1      -5.618  80.372 118.527  0.00  0.00    -0.090 HD
ENDBRANCH   5  18
BRANCH   3  22
ATOM     22  C   LIG d   1      -9.807  78.214 118.191  0.00  0.00     0.382 C 
ATOM     23  O   LIG d   1     -10.736  77.374 118.268  0.00  0.00    -0.241 OA
ATOM     24  O   LIG d   1     -10.074  79.401 117.925  0.00  0.00    -0.241 OA
ENDBRANCH   3  22
TORSDOF 7
ENDMDL
MODEL 9
REMARK VINA RESULT:      -4.9      2.707      5.699
REMARK  7 active torsions:
REMARK  status: ('A' for Active; 'I' for Inactive)
REMARK    1  A    between atoms: C_2  and  C_3 
REMARK    2  A    between atoms: C_3  and  O_6 
REMARK    3  A    between atoms: C_3  and  C_4 
REMARK    4  A    between atoms: C_7  and  O_6 
REMARK    5  A    between atoms: C_9  and  C_10 
REMARK    6  A    between atoms: N_15  and  C_14 
REMARK    7  A    between atoms: N_20  and  C_19 
REMARK       I    between atoms: C_22  and  N_20 
ROOT
ATOM      1  C   LIG d   1      -6.400  77.304 117.364  0.00  0.00     0.161 C 
ATOM      2  C   LIG d   1      -6.760  75.981 117.057  0.00  0.00     0.016 C 
ATOM      3  C   LIG d   1      -8.078  75.484 117.183  0.00  0.00     0.038 C 
ATOM      4  C   LIG d   1      -9.161  76.324 117.484  0.00  0.00     0.028 C 
ATOM      5  C   LIG d   1      -8.767  77.555 118.293  0.00  0.00    -0.047 C 
ATOM      6  C   LIG d   1      -7.588  78.263 117.587  0.00  0.00     0.091 C 
ENDROOT
BRANCH   1   7
ATOM      7  O   LIG d   1      -5.523  77.821 116.343  0.00  0.00    -0.368 OA
BRANCH   7   8
ATOM      8  C   LIG d   1      -4.146  78.039 116.736  0.00  0.00     0.119 C 
BRANCH   8   9
ATOM      9  C   LIG d   1      -3.294  76.943 116.066  0.00  0.00     0.028 C 
ATOM     10  C   LIG d   1      -2.778  75.902 117.074  0.00  0.00     0.006 C 
ENDBRANCH   8   9
BRANCH   8  11
ATOM     11  C   LIG d   1      -3.957  77.834 118.243  0.00  0.00     0.028 C 
ATOM     12  C   LIG d   1      -3.537  79.121 118.970  0.00  0.00     0.006 C 
ENDBRANCH   8  11
ENDBRANCH   7   8
ENDBRANCH   1   7
BRANCH   6  13
ATOM     13  N   LIG d   1      -7.085  79.431 118.356  0.00  0.00    -0.311 N 
ATOM     14  C   LIG d   1      -7.466  80.684 118.118  0.00  0.00     0.210 C 
ATOM     15  C   LIG d   1      -6.811  81.740 119.014  0.00  0.00     0.109 C 
ATOM     16  O   LIG d   1      -8.308  81.019 117.272  0.00  0.00    -0.276 OA
ATOM     17  H   LIG d   1      -6.421  79.246 119.083  0.00  0.00     0.149 HD
ENDBRANCH   6  13
BRANCH   5  18
ATOM     18  N   LIG d   1      -9.963  78.409 118.416  0.00  0.00     0.381 N 
ATOM     19  H   LIG d   1     -10.462  78.175 119.251  0.00  0.00    -0.090 HD
ATOM     20  H   LIG d   1     -10.567  78.238 117.631  0.00  0.00    -0.090 HD
ATOM     21  H   LIG d   1      -9.697  79.368 118.437  0.00  0.00    -0.090 HD
ENDBRANCH   5  18
BRANCH   3  22
ATOM     22  C   LIG d   1      -8.316  74.125 117.047  0.00  0.00     0.382 C 
ATOM     23  O   LIG d   1      -7.359  73.337 116.853  0.00  0.00    -0.241 OA
ATOM     24  O   LIG d   1      -9.480  73.682 117.073  0.00  0.00    -0.241 OA
ENDBRANCH   3  22
TORSDOF 7
ENDMDL
