MODEL 1
REMARK VINA RESULT:      -5.8      0.000      0.000
REMARK  7 active torsions:
REMARK  status: ('A' for Active; 'I' for Inactive)
REMARK    1  A    between atoms: C_2  and  C_3 
REMARK    2  A    between atoms: C_3  and  O_6 
REMARK    3  A    between atoms: C_3  and  C_4 
REMARK    4  A    between atoms: C_7  and  O_6 
REMARK    5  A    between atoms: C_9  and  C_10 
REMARK    6  A    between atoms: N_15  and  C_14 
REMARK    7  A    between atoms: N_20  and  C_19 
REMARK       I    between atoms: C_22  and  N_20 
ROOT
ATOM      1  C   LIG d   1      -5.043  92.435 117.964  0.00  0.00     0.161 C 
ATOM      2  C   LIG d   1      -5.210  91.521 116.910  0.00  0.00     0.016 C 
ATOM      3  C   LIG d   1      -6.268  91.595 115.976  0.00  0.00     0.038 C 
ATOM      4  C   LIG d   1      -7.151  92.684 115.941  0.00  0.00     0.028 C 
ATOM      5  C   LIG d   1      -7.326  93.366 117.294  0.00  0.00    -0.047 C 
ATOM      6  C   LIG d   1      -5.932  93.693 117.875  0.00  0.00     0.091 C 
ENDROOT
BRANCH   1   7
ATOM      7  O   LIG d   1      -3.655  92.809 118.071  0.00  0.00    -0.368 OA
BRANCH   7   8
ATOM      8  C   LIG d   1      -2.898  92.154 119.118  0.00  0.00     0.119 C 
BRANCH   8   9
ATOM      9  C   LIG d   1      -2.116  93.244 119.876  0.00  0.00     0.028 C 
ATOM     10  C   LIG d   1      -0.622  93.259 119.508  0.00  0.00     0.006 C 
ENDBRANCH   8   9
BRANCH   8  11
ATOM     11  C   LIG d   1      -1.831  91.222 118.534  0.00  0.00     0.028 C 
ATOM     12  C   LIG d   1      -2.284  89.754 118.488  0.00  0.00     0.006 C 
ENDBRANCH   8  11
ENDBRANCH   7   8
ENDBRANCH   1   7
BRANCH   6  13
ATOM     13  N   LIG d   1      -6.010  94.285 119.236  0.00  0.00    -0.311 N 
ATOM     14  C   LIG d   1      -5.300  95.347 119.615  0.00  0.00     0.210 C 
ATOM     15  C   LIG d   1      -5.516  95.783 121.068  0.00  0.00     0.109 C 
ATOM     16  O   LIG d   1      -4.537  95.987 118.877  0.00  0.00    -0.276 OA
ATOM     17  H   LIG d   1      -6.629  93.847 119.890  0.00  0.00     0.149 HD
ENDBRANCH   6  13
BRANCH   5  18
ATOM     18  N   LIG d   1      -8.162  94.563 117.085  0.00  0.00     0.381 N 
ATOM     19  H   LIG d   1      -8.862  94.616 117.797  0.00  0.00    -0.090 HD
ATOM     20  H   LIG d   1      -8.621  94.488 116.195  0.00  0.00    -0.090 HD
ATOM     21  H   LIG d   1      -7.595  95.382 117.106  0.00  0.00    -0.090 HD
ENDBRANCH   5  18
BRANCH   3  22
ATOM     22  C   LIG d   1      -6.475  90.551 115.087  0.00  0.00     0.382 C 
ATOM     23  O   LIG d   1      -7.494  90.543 114.355  0.00  0.00    -0.241 OA
ATOM     24  O   LIG d   1      -5.678  89.595 115.039  0.00  0.00    -0.241 OA
ENDBRANCH   3  22
TORSDOF 7
ENDMDL
MODEL 2
REMARK VINA RESULT:      -5.3     14.411     17.144
REMARK  7 active torsions:
REMARK  status: ('A' for Active; 'I' for Inactive)
REMARK    1  A    between atoms: C_2  and  C_3 
REMARK    2  A    between atoms: C_3  and  O_6 
REMARK    3  A    between atoms: C_3  and  C_4 
REMARK    4  A    between atoms: C_7  and  O_6 
REMARK    5  A    between atoms: C_9  and  C_10 
REMARK    6  A    between atoms: N_15  and  C_14 
REMARK    7  A    between atoms: N_20  and  C_19 
REMARK       I    between atoms: C_22  and  N_20 
ROOT
ATOM      1  C   LIG d   1      -3.893  76.019 116.852  0.00  0.00     0.161 C 
ATOM      2  C   LIG d   1      -5.134  76.589 117.182  0.00  0.00     0.016 C 
ATOM      3  C   LIG d   1      -5.485  77.922 116.870  0.00  0.00     0.038 C 
ATOM      4  C   LIG d   1      -4.671  78.735 116.067  0.00  0.00     0.028 C 
ATOM      5  C   LIG d   1      -3.192  78.371 116.139  0.00  0.00    -0.047 C 
ATOM      6  C   LIG d   1      -3.036  76.855 115.879  0.00  0.00     0.091 C 
ENDROOT
BRANCH   1   7
ATOM      7  O   LIG d   1      -4.089  74.689 116.331  0.00  0.00    -0.368 OA
BRANCH   7   8
ATOM      8  C   LIG d   1      -5.342  74.453 115.642  0.00  0.00     0.119 C 
BRANCH   8   9
ATOM      9  C   LIG d   1      -5.738  72.985 115.891  0.00  0.00     0.028 C 
ATOM     10  C   LIG d   1      -6.712  72.832 117.072  0.00  0.00     0.006 C 
ENDBRANCH   8   9
BRANCH   8  11
ATOM     11  C   LIG d   1      -5.174  74.576 114.124  0.00  0.00     0.028 C 
ATOM     12  C   LIG d   1      -5.851  75.831 113.550  0.00  0.00     0.006 C 
ENDBRANCH   8  11
ENDBRANCH   7   8
ENDBRANCH   1   7
BRANCH   6  13
ATOM     13  N   LIG d   1      -1.628  76.399 116.014  0.00  0.00    -0.311 N 
ATOM     14  C   LIG d   1      -0.810  76.226 114.977  0.00  0.00     0.210 C 
ATOM     15  C   LIG d   1       0.594  75.731 115.336  0.00  0.00     0.109 C 
ATOM     16  O   LIG d   1      -1.105  76.466 113.796  0.00  0.00    -0.276 OA
ATOM     17  H   LIG d   1      -1.296  76.211 116.940  0.00  0.00     0.149 HD
ENDBRANCH   6  13
BRANCH   5  18
ATOM     18  N   LIG d   1      -2.479  79.203 115.152  0.00  0.00     0.381 N 
ATOM     19  H   LIG d   1      -2.095  80.009 115.604  0.00  0.00    -0.090 HD
ATOM     20  H   LIG d   1      -3.133  79.514 114.456  0.00  0.00    -0.090 HD
ATOM     21  H   LIG d   1      -1.751  78.676 114.723  0.00  0.00    -0.090 HD
ENDBRANCH   5  18
BRANCH   3  22
ATOM     22  C   LIG d   1      -6.646  78.469 117.397  0.00  0.00     0.382 C 
ATOM     23  O   LIG d   1      -7.407  77.763 118.101  0.00  0.00    -0.241 OA
ATOM     24  O   LIG d   1      -6.963  79.645 117.140  0.00  0.00    -0.241 OA
ENDBRANCH   3  22
TORSDOF 7
ENDMDL
MODEL 3
REMARK VINA RESULT:      -5.3     33.420     35.159
REMARK  7 active torsions:
REMARK  status: ('A' for Active; 'I' for Inactive)
REMARK    1  A    between atoms: C_2  and  C_3 
REMARK    2  A    between atoms: C_3  and  O_6 
REMARK    3  A    between atoms: C_3  and  C_4 
REMARK    4  A    between atoms: C_7  and  O_6 
REMARK    5  A    between atoms: C_9  and  C_10 
REMARK    6  A    between atoms: N_15  and  C_14 
REMARK    7  A    between atoms: N_20  and  C_19 
REMARK       I    between atoms: C_22  and  N_20 
ROOT
ATOM      1  C   LIG d   1       0.215  57.604 118.556  0.00  0.00     0.161 C 
ATOM      2  C   LIG d   1       0.568  58.513 117.544  0.00  0.00     0.016 C 
ATOM      3  C   LIG d   1      -0.164  58.663 116.343  0.00  0.00     0.038 C 
ATOM      4  C   LIG d   1      -1.392  58.017 116.138  0.00  0.00     0.028 C 
ATOM      5  C   LIG d   1      -1.528  56.711 116.914  0.00  0.00    -0.047 C 
ATOM      6  C   LIG d   1      -1.183  56.972 118.398  0.00  0.00     0.091 C 
ENDROOT
BRANCH   1   7
ATOM      7  O   LIG d   1       0.337  58.237 119.845  0.00  0.00    -0.368 OA
BRANCH   7   8
ATOM      8  C   LIG d   1       0.162  59.675 119.867  0.00  0.00     0.119 C 
BRANCH   8   9
ATOM      9  C   LIG d   1       1.243  60.259 120.798  0.00  0.00     0.028 C 
ATOM     10  C   LIG d   1       2.647  59.722 120.474  0.00  0.00     0.006 C 
ENDBRANCH   8   9
BRANCH   8  11
ATOM     11  C   LIG d   1      -1.175  60.064 120.506  0.00  0.00     0.028 C 
ATOM     12  C   LIG d   1      -2.317  60.164 119.482  0.00  0.00     0.006 C 
ENDBRANCH   8  11
ENDBRANCH   7   8
ENDBRANCH   1   7
BRANCH   6  13
ATOM     13  N   LIG d   1      -1.209  55.729 119.212  0.00  0.00    -0.311 N 
ATOM     14  C   LIG d   1      -2.086  55.511 120.191  0.00  0.00     0.210 C 
ATOM     15  C   LIG d   1      -1.925  54.172 120.918  0.00  0.00     0.109 C 
ATOM     16  O   LIG d   1      -3.003  56.285 120.504  0.00  0.00    -0.276 OA
ATOM     17  H   LIG d   1      -0.520  55.033 119.005  0.00  0.00     0.149 HD
ENDBRANCH   6  13
BRANCH   5  18
ATOM     18  N   LIG d   1      -2.903  56.217 116.717  0.00  0.00     0.381 N 
ATOM     19  H   LIG d   1      -3.393  56.819 116.086  0.00  0.00    -0.090 HD
ATOM     20  H   LIG d   1      -3.382  56.228 117.601  0.00  0.00    -0.090 HD
ATOM     21  H   LIG d   1      -2.883  55.289 116.355  0.00  0.00    -0.090 HD
ENDBRANCH   5  18
BRANCH   3  22
ATOM     22  C   LIG d   1       0.353  59.436 115.315  0.00  0.00     0.382 C 
ATOM     23  O   LIG d   1      -0.329  59.645 114.283  0.00  0.00    -0.241 OA
ATOM     24  O   LIG d   1       1.511  59.891 115.388  0.00  0.00    -0.241 OA
ENDBRANCH   3  22
TORSDOF 7
ENDMDL
MODEL 4
REMARK VINA RESULT:      -5.0     14.368     16.980
REMARK  7 active torsions:
REMARK  status: ('A' for Active; 'I' for Inactive)
REMARK    1  A    between atoms: C_2  and  C_3 
REMARK    2  A    between atoms: C_3  and  O_6 
REMARK    3  A    between atoms: C_3  and  C_4 
REMARK    4  A    between atoms: C_7  and  O_6 
REMARK    5  A    between atoms: C_9  and  C_10 
REMARK    6  A    between atoms: N_15  and  C_14 
REMARK    7  A    between atoms: N_20  and  C_19 
REMARK       I    between atoms: C_22  and  N_20 
ROOT
ATOM      1  C   LIG d   1      -5.784  76.516 117.119  0.00  0.00     0.161 C 
ATOM      2  C   LIG d   1      -6.737  77.544 117.211  0.00  0.00     0.016 C 
ATOM      3  C   LIG d   1      -6.401  78.917 117.239  0.00  0.00     0.038 C 
ATOM      4  C   LIG d   1      -5.089  79.363 117.021  0.00  0.00     0.028 C 
ATOM      5  C   LIG d   1      -4.028  78.346 117.427  0.00  0.00    -0.047 C 
ATOM      6  C   LIG d   1      -4.357  76.987 116.769  0.00  0.00     0.091 C 
ENDROOT
BRANCH   1   7
ATOM      7  O   LIG d   1      -6.229  75.521 116.175  0.00  0.00    -0.368 OA
BRANCH   7   8
ATOM      8  C   LIG d   1      -5.914  74.146 116.504  0.00  0.00     0.119 C 
BRANCH   8   9
ATOM      9  C   LIG d   1      -5.322  73.492 115.240  0.00  0.00     0.028 C 
ATOM     10  C   LIG d   1      -5.099  74.505 114.105  0.00  0.00     0.006 C 
ENDBRANCH   8   9
BRANCH   8  11
ATOM     11  C   LIG d   1      -7.180  73.344 116.820  0.00  0.00     0.028 C 
ATOM     12  C   LIG d   1      -7.022  71.842 116.532  0.00  0.00     0.006 C 
ENDBRANCH   8  11
ENDBRANCH   7   8
ENDBRANCH   1   7
BRANCH   6  13
ATOM     13  N   LIG d   1      -3.416  75.914 117.182  0.00  0.00    -0.311 N 
ATOM     14  C   LIG d   1      -2.370  75.534 116.449  0.00  0.00     0.210 C 
ATOM     15  C   LIG d   1      -1.539  74.396 117.049  0.00  0.00     0.109 C 
ATOM     16  O   LIG d   1      -2.034  76.053 115.374  0.00  0.00    -0.276 OA
ATOM     17  H   LIG d   1      -3.596  75.460 118.056  0.00  0.00     0.149 HD
ENDBRANCH   6  13
BRANCH   5  18
ATOM     18  N   LIG d   1      -2.716  78.883 117.020  0.00  0.00     0.381 N 
ATOM     19  H   LIG d   1      -2.233  78.209 116.460  0.00  0.00    -0.090 HD
ATOM     20  H   LIG d   1      -2.167  79.060 117.843  0.00  0.00    -0.090 HD
ATOM     21  H   LIG d   1      -2.838  79.727 116.505  0.00  0.00    -0.090 HD
ENDBRANCH   5  18
BRANCH   3  22
ATOM     22  C   LIG d   1      -7.378  79.858 117.525  0.00  0.00     0.382 C 
ATOM     23  O   LIG d   1      -8.370  79.540 118.224  0.00  0.00    -0.241 OA
ATOM     24  O   LIG d   1      -7.302  81.010 117.057  0.00  0.00    -0.241 OA
ENDBRANCH   3  22
TORSDOF 7
ENDMDL
MODEL 5
REMARK VINA RESULT:      -5.0     33.411     35.328
REMARK  7 active torsions:
REMARK  status: ('A' for Active; 'I' for Inactive)
REMARK    1  A    between atoms: C_2  and  C_3 
REMARK    2  A    between atoms: C_3  and  O_6 
REMARK    3  A    between atoms: C_3  and  C_4 
REMARK    4  A    between atoms: C_7  and  O_6 
REMARK    5  A    between atoms: C_9  and  C_10 
REMARK    6  A    between atoms: N_15  and  C_14 
REMARK    7  A    between atoms: N_20  and  C_19 
REMARK       I    between atoms: C_22  and  N_20 
ROOT
ATOM      1  C   LIG d   1       0.341  58.681 118.386  0.00  0.00     0.161 C 
ATOM      2  C   LIG d   1       1.577  59.147 117.908  0.00  0.00     0.016 C 
ATOM      3  C   LIG d   1       2.711  58.319 117.747  0.00  0.00     0.038 C 
ATOM      4  C   LIG d   1       2.643  56.927 117.911  0.00  0.00     0.028 C 
ATOM      5  C   LIG d   1       1.550  56.485 118.879  0.00  0.00    -0.047 C 
ATOM      6  C   LIG d   1       0.216  57.145 118.465  0.00  0.00     0.091 C 
ENDROOT
BRANCH   1   7
ATOM      7  O   LIG d   1      -0.729  59.231 117.592  0.00  0.00    -0.368 OA
BRANCH   7   8
ATOM      8  C   LIG d   1      -1.562  60.222 118.243  0.00  0.00     0.119 C 
BRANCH   8   9
ATOM      9  C   LIG d   1      -1.127  60.293 119.719  0.00  0.00     0.028 C 
ATOM     10  C   LIG d   1      -2.296  60.046 120.688  0.00  0.00     0.006 C 
ENDBRANCH   8   9
BRANCH   8  11
ATOM     11  C   LIG d   1      -3.029  59.784 118.272  0.00  0.00     0.028 C 
ATOM     12  C   LIG d   1      -3.679  59.785 116.880  0.00  0.00     0.006 C 
ENDBRANCH   8  11
ENDBRANCH   7   8
ENDBRANCH   1   7
BRANCH   6  13
ATOM     13  N   LIG d   1      -0.889  56.832 119.409  0.00  0.00    -0.311 N 
ATOM     14  C   LIG d   1      -2.098  56.434 119.017  0.00  0.00     0.210 C 
ATOM     15  C   LIG d   1      -3.096  56.183 120.151  0.00  0.00     0.109 C 
ATOM     16  O   LIG d   1      -2.429  56.233 117.838  0.00  0.00    -0.276 OA
ATOM     17  H   LIG d   1      -0.697  56.938 120.386  0.00  0.00     0.149 HD
ENDBRANCH   6  13
BRANCH   5  18
ATOM     18  N   LIG d   1       1.500  55.011 118.850  0.00  0.00     0.381 N 
ATOM     19  H   LIG d   1       0.548  54.705 118.809  0.00  0.00    -0.090 HD
ATOM     20  H   LIG d   1       1.909  54.655 119.697  0.00  0.00    -0.090 HD
ATOM     21  H   LIG d   1       2.001  54.668 118.061  0.00  0.00    -0.090 HD
ENDBRANCH   5  18
BRANCH   3  22
ATOM     22  C   LIG d   1       3.942  58.888 117.456  0.00  0.00     0.382 C 
ATOM     23  O   LIG d   1       4.095  59.544 116.398  0.00  0.00    -0.241 OA
ATOM     24  O   LIG d   1       4.913  58.716 118.217  0.00  0.00    -0.241 OA
ENDBRANCH   3  22
TORSDOF 7
ENDMDL
MODEL 6
REMARK VINA RESULT:      -4.9     13.320     15.504
REMARK  7 active torsions:
REMARK  status: ('A' for Active; 'I' for Inactive)
REMARK    1  A    between atoms: C_2  and  C_3 
REMARK    2  A    between atoms: C_3  and  O_6 
REMARK    3  A    between atoms: C_3  and  C_4 
REMARK    4  A    between atoms: C_7  and  O_6 
REMARK    5  A    between atoms: C_9  and  C_10 
REMARK    6  A    between atoms: N_15  and  C_14 
REMARK    7  A    between atoms: N_20  and  C_19 
REMARK       I    between atoms: C_22  and  N_20 
ROOT
ATOM      1  C   LIG d   1      -6.563  77.780 116.993  0.00  0.00     0.161 C 
ATOM      2  C   LIG d   1      -7.912  77.892 117.369  0.00  0.00     0.016 C 
ATOM      3  C   LIG d   1      -8.416  78.954 118.154  0.00  0.00     0.038 C 
ATOM      4  C   LIG d   1      -7.628  80.064 118.493  0.00  0.00     0.028 C 
ATOM      5  C   LIG d   1      -6.137  79.750 118.565  0.00  0.00    -0.047 C 
ATOM      6  C   LIG d   1      -5.711  79.039 117.260  0.00  0.00     0.091 C 
ENDROOT
BRANCH   1   7
ATOM      7  O   LIG d   1      -6.472  77.398 115.606  0.00  0.00    -0.368 OA
BRANCH   7   8
ATOM      8  C   LIG d   1      -6.551  75.978 115.330  0.00  0.00     0.119 C 
BRANCH   8   9
ATOM      9  C   LIG d   1      -5.802  75.244 116.460  0.00  0.00     0.028 C 
ATOM     10  C   LIG d   1      -6.354  73.830 116.708  0.00  0.00     0.006 C 
ENDBRANCH   8   9
BRANCH   8  11
ATOM     11  C   LIG d   1      -5.799  75.618 114.045  0.00  0.00     0.028 C 
ATOM     12  C   LIG d   1      -4.274  75.742 114.192  0.00  0.00     0.006 C 
ENDBRANCH   8  11
ENDBRANCH   7   8
ENDBRANCH   1   7
BRANCH   6  13
ATOM     13  N   LIG d   1      -4.285  78.621 117.282  0.00  0.00    -0.311 N 
ATOM     14  C   LIG d   1      -3.474  78.725 116.230  0.00  0.00     0.210 C 
ATOM     15  C   LIG d   1      -2.047  78.217 116.461  0.00  0.00     0.109 C 
ATOM     16  O   LIG d   1      -3.792  79.220 115.138  0.00  0.00    -0.276 OA
ATOM     17  H   LIG d   1      -3.935  78.237 118.138  0.00  0.00     0.149 HD
ENDBRANCH   6  13
BRANCH   5  18
ATOM     18  N   LIG d   1      -5.424  81.021 118.790  0.00  0.00     0.381 N 
ATOM     19  H   LIG d   1      -4.868  80.955 119.620  0.00  0.00    -0.090 HD
ATOM     20  H   LIG d   1      -6.099  81.754 118.920  0.00  0.00    -0.090 HD
ATOM     21  H   LIG d   1      -4.843  81.229 118.008  0.00  0.00    -0.090 HD
ENDBRANCH   5  18
BRANCH   3  22
ATOM     22  C   LIG d   1      -9.712  78.892 118.643  0.00  0.00     0.382 C 
ATOM     23  O   LIG d   1     -10.192  79.867 119.270  0.00  0.00    -0.241 OA
ATOM     24  O   LIG d   1     -10.391  77.858 118.504  0.00  0.00    -0.241 OA
ENDBRANCH   3  22
TORSDOF 7
ENDMDL
MODEL 7
REMARK VINA RESULT:      -4.8      9.882     12.690
REMARK  7 active torsions:
REMARK  status: ('A' for Active; 'I' for Inactive)
REMARK    1  A    between atoms: C_2  and  C_3 
REMARK    2  A    between atoms: C_3  and  O_6 
REMARK    3  A    between atoms: C_3  and  C_4 
REMARK    4  A    between atoms: C_7  and  O_6 
REMARK    5  A    between atoms: C_9  and  C_10 
REMARK    6  A    between atoms: N_15  and  C_14 
REMARK    7  A    between atoms: N_20  and  C_19 
REMARK       I    between atoms: C_22  and  N_20 
ROOT
ATOM      1  C   LIG d   1       4.875  87.654 116.484  0.00  0.00     0.161 C 
ATOM      2  C   LIG d   1       4.133  88.844 116.559  0.00  0.00     0.016 C 
ATOM      3  C   LIG d   1       4.690  90.087 116.940  0.00  0.00     0.038 C 
ATOM      4  C   LIG d   1       6.071  90.254 117.127  0.00  0.00     0.028 C 
ATOM      5  C   LIG d   1       6.783  88.975 117.554  0.00  0.00    -0.047 C 
ATOM      6  C   LIG d   1       6.405  87.839 116.576  0.00  0.00     0.091 C 
ENDROOT
BRANCH   1   7
ATOM      7  O   LIG d   1       4.529  86.938 115.282  0.00  0.00    -0.368 OA
BRANCH   7   8
ATOM      8  C   LIG d   1       3.564  87.579 114.413  0.00  0.00     0.119 C 
BRANCH   8   9
ATOM      9  C   LIG d   1       2.459  86.549 114.108  0.00  0.00     0.028 C 
ATOM     10  C   LIG d   1       1.611  86.213 115.347  0.00  0.00     0.006 C 
ENDBRANCH   8   9
BRANCH   8  11
ATOM     11  C   LIG d   1       4.181  87.926 113.055  0.00  0.00     0.028 C 
ATOM     12  C   LIG d   1       5.353  88.914 113.168  0.00  0.00     0.006 C 
ENDBRANCH   8  11
ENDBRANCH   7   8
ENDBRANCH   1   7
BRANCH   6  13
ATOM     13  N   LIG d   1       6.993  86.532 116.970  0.00  0.00    -0.311 N 
ATOM     14  C   LIG d   1       8.155  86.081 116.503  0.00  0.00     0.210 C 
ATOM     15  C   LIG d   1       8.569  84.700 117.023  0.00  0.00     0.109 C 
ATOM     16  O   LIG d   1       8.899  86.706 115.732  0.00  0.00    -0.276 OA
ATOM     17  H   LIG d   1       6.470  85.974 117.616  0.00  0.00     0.149 HD
ENDBRANCH   6  13
BRANCH   5  18
ATOM     18  N   LIG d   1       8.231  89.258 117.578  0.00  0.00     0.381 N 
ATOM     19  H   LIG d   1       8.739  88.413 117.747  0.00  0.00    -0.090 HD
ATOM     20  H   LIG d   1       8.424  89.898 118.329  0.00  0.00    -0.090 HD
ATOM     21  H   LIG d   1       8.515  89.657 116.710  0.00  0.00    -0.090 HD
ENDBRANCH   5  18
BRANCH   3  22
ATOM     22  C   LIG d   1       3.858  91.170 117.177  0.00  0.00     0.382 C 
ATOM     23  O   LIG d   1       4.330  92.332 117.193  0.00  0.00    -0.241 OA
ATOM     24  O   LIG d   1       2.648  90.996 117.419  0.00  0.00    -0.241 OA
ENDBRANCH   3  22
TORSDOF 7
ENDMDL
MODEL 8
REMARK VINA RESULT:      -4.6      4.081      7.240
REMARK  7 active torsions:
REMARK  status: ('A' for Active; 'I' for Inactive)
REMARK    1  A    between atoms: C_2  and  C_3 
REMARK    2  A    between atoms: C_3  and  O_6 
REMARK    3  A    between atoms: C_3  and  C_4 
REMARK    4  A    between atoms: C_7  and  O_6 
REMARK    5  A    between atoms: C_9  and  C_10 
REMARK    6  A    between atoms: N_15  and  C_14 
REMARK    7  A    between atoms: N_20  and  C_19 
REMARK       I    between atoms: C_22  and  N_20 
ROOT
ATOM      1  C   LIG d   1       0.318  90.982 117.311  0.00  0.00     0.161 C 
ATOM      2  C   LIG d   1       1.719  90.959 117.413  0.00  0.00     0.016 C 
ATOM      3  C   LIG d   1       2.448  91.783 118.301  0.00  0.00     0.038 C 
ATOM      4  C   LIG d   1       1.812  92.584 119.260  0.00  0.00     0.028 C 
ATOM      5  C   LIG d   1       0.407  93.017 118.853  0.00  0.00    -0.047 C 
ATOM      6  C   LIG d   1      -0.399  91.769 118.428  0.00  0.00     0.091 C 
ENDROOT
BRANCH   1   7
ATOM      7  O   LIG d   1      -0.189  89.634 117.243  0.00  0.00    -0.368 OA
BRANCH   7   8
ATOM      8  C   LIG d   1      -0.266  88.918 118.499  0.00  0.00     0.119 C 
BRANCH   8   9
ATOM      9  C   LIG d   1       0.817  87.822 118.475  0.00  0.00     0.028 C 
ATOM     10  C   LIG d   1       0.228  86.418 118.263  0.00  0.00     0.006 C 
ENDBRANCH   8   9
BRANCH   8  11
ATOM     11  C   LIG d   1      -1.596  88.170 118.634  0.00  0.00     0.028 C 
ATOM     12  C   LIG d   1      -2.308  88.455 119.965  0.00  0.00     0.006 C 
ENDBRANCH   8  11
ENDBRANCH   7   8
ENDBRANCH   1   7
BRANCH   6  13
ATOM     13  N   LIG d   1      -1.758  92.113 117.934  0.00  0.00    -0.311 N 
ATOM     14  C   LIG d   1      -2.834  92.156 118.719  0.00  0.00     0.210 C 
ATOM     15  C   LIG d   1      -4.141  92.513 118.004  0.00  0.00     0.109 C 
ATOM     16  O   LIG d   1      -2.824  91.965 119.944  0.00  0.00    -0.276 OA
ATOM     17  H   LIG d   1      -1.852  92.313 116.958  0.00  0.00     0.149 HD
ENDBRANCH   6  13
BRANCH   5  18
ATOM     18  N   LIG d   1      -0.190  93.728 120.000  0.00  0.00     0.381 N 
ATOM     19  H   LIG d   1      -0.312  94.695 119.772  0.00  0.00    -0.090 HD
ATOM     20  H   LIG d   1       0.436  93.665 120.783  0.00  0.00    -0.090 HD
ATOM     21  H   LIG d   1      -1.069  93.321 120.233  0.00  0.00    -0.090 HD
ENDBRANCH   5  18
BRANCH   3  22
ATOM     22  C   LIG d   1       3.830  91.841 118.206  0.00  0.00     0.382 C 
ATOM     23  O   LIG d   1       4.539  91.543 119.197  0.00  0.00    -0.241 OA
ATOM     24  O   LIG d   1       4.376  92.230 117.156  0.00  0.00    -0.241 OA
ENDBRANCH   3  22
TORSDOF 7
ENDMDL
MODEL 9
REMARK VINA RESULT:      -4.5      2.203      3.752
REMARK  7 active torsions:
REMARK  status: ('A' for Active; 'I' for Inactive)
REMARK    1  A    between atoms: C_2  and  C_3 
REMARK    2  A    between atoms: C_3  and  O_6 
REMARK    3  A    between atoms: C_3  and  C_4 
REMARK    4  A    between atoms: C_7  and  O_6 
REMARK    5  A    between atoms: C_9  and  C_10 
REMARK    6  A    between atoms: N_15  and  C_14 
REMARK    7  A    between atoms: N_20  and  C_19 
REMARK       I    between atoms: C_22  and  N_20 
ROOT
ATOM      1  C   LIG d   1      -6.138  94.131 119.923  0.00  0.00     0.161 C 
ATOM      2  C   LIG d   1      -5.374  93.164 119.250  0.00  0.00     0.016 C 
ATOM      3  C   LIG d   1      -5.674  92.703 117.947  0.00  0.00     0.038 C 
ATOM      4  C   LIG d   1      -6.678  93.293 117.165  0.00  0.00     0.028 C 
ATOM      5  C   LIG d   1      -7.795  93.924 117.989  0.00  0.00    -0.047 C 
ATOM      6  C   LIG d   1      -7.171  94.866 119.043  0.00  0.00     0.091 C 
ENDROOT
BRANCH   1   7
ATOM      7  O   LIG d   1      -5.266  95.079 120.570  0.00  0.00    -0.368 OA
BRANCH   7   8
ATOM      8  C   LIG d   1      -4.143  95.551 119.786  0.00  0.00     0.119 C 
BRANCH   8   9
ATOM      9  C   LIG d   1      -2.899  95.519 120.695  0.00  0.00     0.028 C 
ATOM     10  C   LIG d   1      -2.002  94.300 120.419  0.00  0.00     0.006 C 
ENDBRANCH   8   9
BRANCH   8  11
ATOM     11  C   LIG d   1      -4.318  97.019 119.389  0.00  0.00     0.028 C 
ATOM     12  C   LIG d   1      -5.225  97.794 120.357  0.00  0.00     0.006 C 
ENDBRANCH   8  11
ENDBRANCH   7   8
ENDBRANCH   1   7
BRANCH   6  13
ATOM     13  N   LIG d   1      -8.190  95.460 119.947  0.00  0.00    -0.311 N 
ATOM     14  C   LIG d   1      -8.768  96.640 119.726  0.00  0.00     0.210 C 
ATOM     15  C   LIG d   1      -9.777  97.075 120.793  0.00  0.00     0.109 C 
ATOM     16  O   LIG d   1      -8.564  97.352 118.731  0.00  0.00    -0.276 OA
ATOM     17  H   LIG d   1      -8.438  94.935 120.763  0.00  0.00     0.149 HD
ENDBRANCH   6  13
BRANCH   5  18
ATOM     18  N   LIG d   1      -8.700  94.620 117.055  0.00  0.00     0.381 N 
ATOM     19  H   LIG d   1      -8.616  94.220 116.141  0.00  0.00    -0.090 HD
ATOM     20  H   LIG d   1      -8.431  95.586 117.001  0.00  0.00    -0.090 HD
ATOM     21  H   LIG d   1      -9.641  94.546 117.373  0.00  0.00    -0.090 HD
ENDBRANCH   5  18
BRANCH   3  22
ATOM     22  C   LIG d   1      -4.990  91.613 117.430  0.00  0.00     0.382 C 
ATOM     23  O   LIG d   1      -3.783  91.434 117.720  0.00  0.00    -0.241 OA
ATOM     24  O   LIG d   1      -5.553  90.832 116.640  0.00  0.00    -0.241 OA
ENDBRANCH   3  22
TORSDOF 7
ENDMDL
