MODEL 1
REMARK VINA RESULT:      -6.0      0.000      0.000
REMARK  7 active torsions:
REMARK  status: ('A' for Active; 'I' for Inactive)
REMARK    1  A    between atoms: C_2  and  C_3 
REMARK    2  A    between atoms: C_3  and  O_6 
REMARK    3  A    between atoms: C_3  and  C_4 
REMARK    4  A    between atoms: C_7  and  O_6 
REMARK    5  A    between atoms: C_9  and  C_10 
REMARK    6  A    between atoms: N_15  and  C_14 
REMARK    7  A    between atoms: N_20  and  C_19 
REMARK       I    between atoms: C_22  and  N_20 
ROOT
ATOM      1  C   LIG d   1      -4.794  91.372 117.785  0.00  0.00     0.161 C 
ATOM      2  C   LIG d   1      -3.766  92.216 118.235  0.00  0.00     0.016 C 
ATOM      3  C   LIG d   1      -4.001  93.446 118.893  0.00  0.00     0.038 C 
ATOM      4  C   LIG d   1      -5.288  93.845 119.282  0.00  0.00     0.028 C 
ATOM      5  C   LIG d   1      -6.392  93.267 118.403  0.00  0.00    -0.047 C 
ATOM      6  C   LIG d   1      -6.203  91.737 118.299  0.00  0.00     0.091 C 
ENDROOT
BRANCH   1   7
ATOM      7  O   LIG d   1      -4.481  90.003 118.112  0.00  0.00    -0.368 OA
BRANCH   7   8
ATOM      8  C   LIG d   1      -3.171  89.769 118.685  0.00  0.00     0.119 C 
BRANCH   8   9
ATOM      9  C   LIG d   1      -2.461  88.722 117.804  0.00  0.00     0.028 C 
ATOM     10  C   LIG d   1      -1.596  87.752 118.627  0.00  0.00     0.006 C 
ENDBRANCH   8   9
BRANCH   8  11
ATOM     11  C   LIG d   1      -3.276  89.128 120.072  0.00  0.00     0.028 C 
ATOM     12  C   LIG d   1      -3.106  90.145 121.212  0.00  0.00     0.006 C 
ENDBRANCH   8  11
ENDBRANCH   7   8
ENDBRANCH   1   7
BRANCH   6  13
ATOM     13  N   LIG d   1      -7.192  91.103 117.388  0.00  0.00    -0.311 N 
ATOM     14  C   LIG d   1      -7.219  91.316 116.074  0.00  0.00     0.210 C 
ATOM     15  C   LIG d   1      -8.333  90.580 115.323  0.00  0.00     0.109 C 
ATOM     16  O   LIG d   1      -6.407  92.019 115.454  0.00  0.00    -0.276 OA
ATOM     17  H   LIG d   1      -7.868  90.493 117.803  0.00  0.00     0.149 HD
ENDBRANCH   6  13
BRANCH   5  18
ATOM     18  N   LIG d   1      -7.685  93.650 119.002  0.00  0.00     0.381 N 
ATOM     19  H   LIG d   1      -7.530  94.255 119.784  0.00  0.00    -0.090 HD
ATOM     20  H   LIG d   1      -8.149  92.822 119.330  0.00  0.00    -0.090 HD
ATOM     21  H   LIG d   1      -8.252  94.111 118.324  0.00  0.00    -0.090 HD
ENDBRANCH   5  18
BRANCH   3  22
ATOM     22  C   LIG d   1      -2.943  94.310 119.133  0.00  0.00     0.382 C 
ATOM     23  O   LIG d   1      -3.074  95.248 119.955  0.00  0.00    -0.241 OA
ATOM     24  O   LIG d   1      -1.874  94.190 118.505  0.00  0.00    -0.241 OA
ENDBRANCH   3  22
TORSDOF 7
ENDMDL
MODEL 2
REMARK VINA RESULT:      -5.8      1.980      4.696
REMARK  7 active torsions:
REMARK  status: ('A' for Active; 'I' for Inactive)
REMARK    1  A    between atoms: C_2  and  C_3 
REMARK    2  A    between atoms: C_3  and  O_6 
REMARK    3  A    between atoms: C_3  and  C_4 
REMARK    4  A    between atoms: C_7  and  O_6 
REMARK    5  A    between atoms: C_9  and  C_10 
REMARK    6  A    between atoms: N_15  and  C_14 
REMARK    7  A    between atoms: N_20  and  C_19 
REMARK       I    between atoms: C_22  and  N_20 
ROOT
ATOM      1  C   LIG d   1      -4.167  91.690 118.687  0.00  0.00     0.161 C 
ATOM      2  C   LIG d   1      -4.995  90.882 117.890  0.00  0.00     0.016 C 
ATOM      3  C   LIG d   1      -6.258  91.298 117.409  0.00  0.00     0.038 C 
ATOM      4  C   LIG d   1      -6.714  92.615 117.567  0.00  0.00     0.028 C 
ATOM      5  C   LIG d   1      -6.137  93.313 118.794  0.00  0.00    -0.047 C 
ATOM      6  C   LIG d   1      -4.599  93.168 118.777  0.00  0.00     0.091 C 
ENDROOT
BRANCH   1   7
ATOM      7  O   LIG d   1      -2.804  91.592 118.229  0.00  0.00    -0.368 OA
BRANCH   7   8
ATOM      8  C   LIG d   1      -1.963  90.642 118.928  0.00  0.00     0.119 C 
BRANCH   8   9
ATOM      9  C   LIG d   1      -0.774  91.423 119.520  0.00  0.00     0.028 C 
ATOM     10  C   LIG d   1       0.021  92.185 118.446  0.00  0.00     0.006 C 
ENDBRANCH   8   9
BRANCH   8  11
ATOM     11  C   LIG d   1      -1.342  89.630 117.960  0.00  0.00     0.028 C 
ATOM     12  C   LIG d   1      -1.861  88.200 118.178  0.00  0.00     0.006 C 
ENDBRANCH   8  11
ENDBRANCH   7   8
ENDBRANCH   1   7
BRANCH   6  13
ATOM     13  N   LIG d   1      -3.961  93.750 119.986  0.00  0.00    -0.311 N 
ATOM     14  C   LIG d   1      -2.903  94.558 119.940  0.00  0.00     0.210 C 
ATOM     15  C   LIG d   1      -2.390  95.030 121.305  0.00  0.00     0.109 C 
ATOM     16  O   LIG d   1      -2.360  94.954 118.898  0.00  0.00    -0.276 OA
ATOM     17  H   LIG d   1      -4.357  93.507 120.873  0.00  0.00     0.149 HD
ENDBRANCH   6  13
BRANCH   5  18
ATOM     18  N   LIG d   1      -6.587  94.717 118.761  0.00  0.00     0.381 N 
ATOM     19  H   LIG d   1      -7.284  94.833 118.053  0.00  0.00    -0.090 HD
ATOM     20  H   LIG d   1      -5.804  95.304 118.531  0.00  0.00    -0.090 HD
ATOM     21  H   LIG d   1      -6.957  94.978 119.648  0.00  0.00    -0.090 HD
ENDBRANCH   5  18
BRANCH   3  22
ATOM     22  C   LIG d   1      -7.096  90.380 116.795  0.00  0.00     0.382 C 
ATOM     23  O   LIG d   1      -8.304  90.312 117.129  0.00  0.00    -0.241 OA
ATOM     24  O   LIG d   1      -6.650  89.588 115.943  0.00  0.00    -0.241 OA
ENDBRANCH   3  22
TORSDOF 7
ENDMDL
MODEL 3
REMARK VINA RESULT:      -5.7      2.147      4.964
REMARK  7 active torsions:
REMARK  status: ('A' for Active; 'I' for Inactive)
REMARK    1  A    between atoms: C_2  and  C_3 
REMARK    2  A    between atoms: C_3  and  O_6 
REMARK    3  A    between atoms: C_3  and  C_4 
REMARK    4  A    between atoms: C_7  and  O_6 
REMARK    5  A    between atoms: C_9  and  C_10 
REMARK    6  A    between atoms: N_15  and  C_14 
REMARK    7  A    between atoms: N_20  and  C_19 
REMARK       I    between atoms: C_22  and  N_20 
ROOT
ATOM      1  C   LIG d   1      -5.163  91.287 117.667  0.00  0.00     0.161 C 
ATOM      2  C   LIG d   1      -4.182  90.290 117.538  0.00  0.00     0.016 C 
ATOM      3  C   LIG d   1      -2.944  90.324 118.219  0.00  0.00     0.038 C 
ATOM      4  C   LIG d   1      -2.662  91.289 119.198  0.00  0.00     0.028 C 
ATOM      5  C   LIG d   1      -3.416  92.599 118.992  0.00  0.00    -0.047 C 
ATOM      6  C   LIG d   1      -4.920  92.290 118.814  0.00  0.00     0.091 C 
ENDROOT
BRANCH   1   7
ATOM      7  O   LIG d   1      -6.464  90.680 117.799  0.00  0.00    -0.368 OA
BRANCH   7   8
ATOM      8  C   LIG d   1      -7.409  90.959 116.737  0.00  0.00     0.119 C 
BRANCH   8   9
ATOM      9  C   LIG d   1      -7.825  89.609 116.122  0.00  0.00     0.028 C 
ATOM     10  C   LIG d   1      -9.172  89.105 116.667  0.00  0.00     0.006 C 
ENDBRANCH   8   9
BRANCH   8  11
ATOM     11  C   LIG d   1      -6.750  91.739 115.596  0.00  0.00     0.028 C 
ATOM     12  C   LIG d   1      -7.198  91.256 114.207  0.00  0.00     0.006 C 
ENDBRANCH   8  11
ENDBRANCH   7   8
ENDBRANCH   1   7
BRANCH   6  13
ATOM     13  N   LIG d   1      -5.719  93.509 118.524  0.00  0.00    -0.311 N 
ATOM     14  C   LIG d   1      -6.387  94.186 119.455  0.00  0.00     0.210 C 
ATOM     15  C   LIG d   1      -7.163  95.402 118.938  0.00  0.00     0.109 C 
ATOM     16  O   LIG d   1      -6.386  93.915 120.665  0.00  0.00    -0.276 OA
ATOM     17  H   LIG d   1      -5.749  93.818 117.572  0.00  0.00     0.149 HD
ENDBRANCH   6  13
BRANCH   5  18
ATOM     18  N   LIG d   1      -3.136  93.461 120.155  0.00  0.00     0.381 N 
ATOM     19  H   LIG d   1      -2.302  93.989 119.993  0.00  0.00    -0.090 HD
ATOM     20  H   LIG d   1      -2.990  92.881 120.963  0.00  0.00    -0.090 HD
ATOM     21  H   LIG d   1      -3.902  94.078 120.314  0.00  0.00    -0.090 HD
ENDBRANCH   5  18
BRANCH   3  22
ATOM     22  C   LIG d   1      -1.955  89.408 117.894  0.00  0.00     0.382 C 
ATOM     23  O   LIG d   1      -2.173  88.179 118.019  0.00  0.00    -0.241 OA
ATOM     24  O   LIG d   1      -0.833  89.797 117.518  0.00  0.00    -0.241 OA
ENDBRANCH   3  22
TORSDOF 7
ENDMDL
MODEL 4
REMARK VINA RESULT:      -5.6      2.186      4.581
REMARK  7 active torsions:
REMARK  status: ('A' for Active; 'I' for Inactive)
REMARK    1  A    between atoms: C_2  and  C_3 
REMARK    2  A    between atoms: C_3  and  O_6 
REMARK    3  A    between atoms: C_3  and  C_4 
REMARK    4  A    between atoms: C_7  and  O_6 
REMARK    5  A    between atoms: C_9  and  C_10 
REMARK    6  A    between atoms: N_15  and  C_14 
REMARK    7  A    between atoms: N_20  and  C_19 
REMARK       I    between atoms: C_22  and  N_20 
ROOT
ATOM      1  C   LIG d   1      -5.692  92.408 117.567  0.00  0.00     0.161 C 
ATOM      2  C   LIG d   1      -4.763  91.395 117.856  0.00  0.00     0.016 C 
ATOM      3  C   LIG d   1      -4.365  91.056 119.170  0.00  0.00     0.038 C 
ATOM      4  C   LIG d   1      -4.988  91.609 120.299  0.00  0.00     0.028 C 
ATOM      5  C   LIG d   1      -5.572  92.996 120.050  0.00  0.00    -0.047 C 
ATOM      6  C   LIG d   1      -6.465  92.946 118.789  0.00  0.00     0.091 C 
ENDROOT
BRANCH   1   7
ATOM      7  O   LIG d   1      -6.611  91.952 116.554  0.00  0.00    -0.368 OA
BRANCH   7   8
ATOM      8  C   LIG d   1      -6.857  90.525 116.512  0.00  0.00     0.119 C 
BRANCH   8   9
ATOM      9  C   LIG d   1      -6.933  90.111 115.030  0.00  0.00     0.028 C 
ATOM     10  C   LIG d   1      -7.345  91.277 114.116  0.00  0.00     0.006 C 
ENDBRANCH   8   9
BRANCH   8  11
ATOM     11  C   LIG d   1      -8.228  90.178 117.101  0.00  0.00     0.028 C 
ATOM     12  C   LIG d   1      -8.960  89.087 116.303  0.00  0.00     0.006 C 
ENDBRANCH   8  11
ENDBRANCH   7   8
ENDBRANCH   1   7
BRANCH   6  13
ATOM     13  N   LIG d   1      -7.008  94.280 118.426  0.00  0.00    -0.311 N 
ATOM     14  C   LIG d   1      -8.173  94.745 118.876  0.00  0.00     0.210 C 
ATOM     15  C   LIG d   1      -8.555  96.136 118.363  0.00  0.00     0.109 C 
ATOM     16  O   LIG d   1      -8.909  94.150 119.677  0.00  0.00    -0.276 OA
ATOM     17  H   LIG d   1      -6.460  94.843 117.805  0.00  0.00     0.149 HD
ENDBRANCH   6  13
BRANCH   5  18
ATOM     18  N   LIG d   1      -6.309  93.394 121.265  0.00  0.00     0.381 N 
ATOM     19  H   LIG d   1      -6.842  94.221 121.082  0.00  0.00    -0.090 HD
ATOM     20  H   LIG d   1      -5.648  93.599 121.993  0.00  0.00    -0.090 HD
ATOM     21  H   LIG d   1      -6.914  92.657 121.553  0.00  0.00    -0.090 HD
ENDBRANCH   5  18
BRANCH   3  22
ATOM     22  C   LIG d   1      -3.306  90.183 119.364  0.00  0.00     0.382 C 
ATOM     23  O   LIG d   1      -3.474  88.949 119.212  0.00  0.00    -0.241 OA
ATOM     24  O   LIG d   1      -2.195  90.610 119.733  0.00  0.00    -0.241 OA
ENDBRANCH   3  22
TORSDOF 7
ENDMDL
MODEL 5
REMARK VINA RESULT:      -5.5     12.084     14.379
REMARK  7 active torsions:
REMARK  status: ('A' for Active; 'I' for Inactive)
REMARK    1  A    between atoms: C_2  and  C_3 
REMARK    2  A    between atoms: C_3  and  O_6 
REMARK    3  A    between atoms: C_3  and  C_4 
REMARK    4  A    between atoms: C_7  and  O_6 
REMARK    5  A    between atoms: C_9  and  C_10 
REMARK    6  A    between atoms: N_15  and  C_14 
REMARK    7  A    between atoms: N_20  and  C_19 
REMARK       I    between atoms: C_22  and  N_20 
ROOT
ATOM      1  C   LIG d   1      -3.622  78.125 117.160  0.00  0.00     0.161 C 
ATOM      2  C   LIG d   1      -2.631  78.958 117.704  0.00  0.00     0.016 C 
ATOM      3  C   LIG d   1      -1.265  78.880 117.344  0.00  0.00     0.038 C 
ATOM      4  C   LIG d   1      -0.820  78.059 116.298  0.00  0.00     0.028 C 
ATOM      5  C   LIG d   1      -1.704  76.837 116.068  0.00  0.00    -0.047 C 
ATOM      6  C   LIG d   1      -3.173  77.299 115.936  0.00  0.00     0.091 C 
ENDROOT
BRANCH   1   7
ATOM      7  O   LIG d   1      -4.792  78.903 116.837  0.00  0.00    -0.368 OA
BRANCH   7   8
ATOM      8  C   LIG d   1      -5.876  78.853 117.797  0.00  0.00     0.119 C 
BRANCH   8   9
ATOM      9  C   LIG d   1      -6.902  77.825 117.283  0.00  0.00     0.028 C 
ATOM     10  C   LIG d   1      -7.948  77.457 118.349  0.00  0.00     0.006 C 
ENDBRANCH   8   9
BRANCH   8  11
ATOM     11  C   LIG d   1      -6.629  80.185 117.857  0.00  0.00     0.028 C 
ATOM     12  C   LIG d   1      -6.153  81.088 119.005  0.00  0.00     0.006 C 
ENDBRANCH   8  11
ENDBRANCH   7   8
ENDBRANCH   1   7
BRANCH   6  13
ATOM     13  N   LIG d   1      -4.115  76.158 115.793  0.00  0.00    -0.311 N 
ATOM     14  C   LIG d   1      -4.787  75.898 114.673  0.00  0.00     0.210 C 
ATOM     15  C   LIG d   1      -5.721  74.686 114.746  0.00  0.00     0.109 C 
ATOM     16  O   LIG d   1      -4.674  76.537 113.616  0.00  0.00    -0.276 OA
ATOM     17  H   LIG d   1      -4.243  75.569 116.593  0.00  0.00     0.149 HD
ENDBRANCH   6  13
BRANCH   5  18
ATOM     18  N   LIG d   1      -1.205  76.146 114.864  0.00  0.00     0.381 N 
ATOM     19  H   LIG d   1      -1.791  75.363 114.656  0.00  0.00    -0.090 HD
ATOM     20  H   LIG d   1      -0.277  75.806 115.046  0.00  0.00    -0.090 HD
ATOM     21  H   LIG d   1      -1.191  76.774 114.091  0.00  0.00    -0.090 HD
ENDBRANCH   5  18
BRANCH   3  22
ATOM     22  C   LIG d   1      -0.323  79.600 118.063  0.00  0.00     0.382 C 
ATOM     23  O   LIG d   1      -0.295  79.521 119.315  0.00  0.00    -0.241 OA
ATOM     24  O   LIG d   1       0.469  80.363 117.478  0.00  0.00    -0.241 OA
ENDBRANCH   3  22
TORSDOF 7
ENDMDL
MODEL 6
REMARK VINA RESULT:      -5.5     13.235     16.031
REMARK  7 active torsions:
REMARK  status: ('A' for Active; 'I' for Inactive)
REMARK    1  A    between atoms: C_2  and  C_3 
REMARK    2  A    between atoms: C_3  and  O_6 
REMARK    3  A    between atoms: C_3  and  C_4 
REMARK    4  A    between atoms: C_7  and  O_6 
REMARK    5  A    between atoms: C_9  and  C_10 
REMARK    6  A    between atoms: N_15  and  C_14 
REMARK    7  A    between atoms: N_20  and  C_19 
REMARK       I    between atoms: C_22  and  N_20 
ROOT
ATOM      1  C   LIG d   1      -1.706  77.637 116.475  0.00  0.00     0.161 C 
ATOM      2  C   LIG d   1      -2.775  77.469 115.579  0.00  0.00     0.016 C 
ATOM      3  C   LIG d   1      -3.371  76.217 115.306  0.00  0.00     0.038 C 
ATOM      4  C   LIG d   1      -3.037  75.062 116.030  0.00  0.00     0.028 C 
ATOM      5  C   LIG d   1      -1.616  75.086 116.584  0.00  0.00    -0.047 C 
ATOM      6  C   LIG d   1      -1.401  76.408 117.356  0.00  0.00     0.091 C 
ENDROOT
BRANCH   1   7
ATOM      7  O   LIG d   1      -1.936  78.799 117.297  0.00  0.00    -0.368 OA
BRANCH   7   8
ATOM      8  C   LIG d   1      -2.887  78.635 118.379  0.00  0.00     0.119 C 
BRANCH   8   9
ATOM      9  C   LIG d   1      -4.098  79.537 118.070  0.00  0.00     0.028 C 
ATOM     10  C   LIG d   1      -5.379  78.728 117.804  0.00  0.00     0.006 C 
ENDBRANCH   8   9
BRANCH   8  11
ATOM     11  C   LIG d   1      -2.320  79.157 119.702  0.00  0.00     0.028 C 
ATOM     12  C   LIG d   1      -0.888  79.700 119.565  0.00  0.00     0.006 C 
ENDBRANCH   8  11
ENDBRANCH   7   8
ENDBRANCH   1   7
BRANCH   6  13
ATOM     13  N   LIG d   1      -0.010  76.550 117.861  0.00  0.00    -0.311 N 
ATOM     14  C   LIG d   1       0.364  76.195 119.089  0.00  0.00     0.210 C 
ATOM     15  C   LIG d   1       1.840  76.444 119.412  0.00  0.00     0.109 C 
ATOM     16  O   LIG d   1      -0.379  75.668 119.930  0.00  0.00    -0.276 OA
ATOM     17  H   LIG d   1       0.665  76.941 117.233  0.00  0.00     0.149 HD
ENDBRANCH   6  13
BRANCH   5  18
ATOM     18  N   LIG d   1      -1.448  73.889 117.430  0.00  0.00     0.381 N 
ATOM     19  H   LIG d   1      -1.925  74.019 118.300  0.00  0.00    -0.090 HD
ATOM     20  H   LIG d   1      -0.470  73.762 117.623  0.00  0.00    -0.090 HD
ATOM     21  H   LIG d   1      -1.808  73.087 116.961  0.00  0.00    -0.090 HD
ENDBRANCH   5  18
BRANCH   3  22
ATOM     22  C   LIG d   1      -4.287  76.102 114.271  0.00  0.00     0.382 C 
ATOM     23  O   LIG d   1      -5.125  75.168 114.275  0.00  0.00    -0.241 OA
ATOM     24  O   LIG d   1      -4.257  76.896 113.311  0.00  0.00    -0.241 OA
ENDBRANCH   3  22
TORSDOF 7
ENDMDL
MODEL 7
REMARK VINA RESULT:      -5.4     12.210     15.691
REMARK  7 active torsions:
REMARK  status: ('A' for Active; 'I' for Inactive)
REMARK    1  A    between atoms: C_2  and  C_3 
REMARK    2  A    between atoms: C_3  and  O_6 
REMARK    3  A    between atoms: C_3  and  C_4 
REMARK    4  A    between atoms: C_7  and  O_6 
REMARK    5  A    between atoms: C_9  and  C_10 
REMARK    6  A    between atoms: N_15  and  C_14 
REMARK    7  A    between atoms: N_20  and  C_19 
REMARK       I    between atoms: C_22  and  N_20 
ROOT
ATOM      1  C   LIG d   1      -3.815  77.925 116.737  0.00  0.00     0.161 C 
ATOM      2  C   LIG d   1      -4.768  77.304 115.911  0.00  0.00     0.016 C 
ATOM      3  C   LIG d   1      -4.568  76.042 115.306  0.00  0.00     0.038 C 
ATOM      4  C   LIG d   1      -3.457  75.241 115.610  0.00  0.00     0.028 C 
ATOM      5  C   LIG d   1      -2.234  76.042 116.042  0.00  0.00    -0.047 C 
ATOM      6  C   LIG d   1      -2.644  77.017 117.169  0.00  0.00     0.091 C 
ENDROOT
BRANCH   1   7
ATOM      7  O   LIG d   1      -4.465  78.489 117.894  0.00  0.00    -0.368 OA
BRANCH   7   8
ATOM      8  C   LIG d   1      -5.782  79.051 117.674  0.00  0.00     0.119 C 
BRANCH   8   9
ATOM      9  C   LIG d   1      -5.669  80.578 117.852  0.00  0.00     0.028 C 
ATOM     10  C   LIG d   1      -7.041  81.271 117.863  0.00  0.00     0.006 C 
ENDBRANCH   8   9
BRANCH   8  11
ATOM     11  C   LIG d   1      -6.771  78.590 118.748  0.00  0.00     0.028 C 
ATOM     12  C   LIG d   1      -7.803  77.583 118.216  0.00  0.00     0.006 C 
ENDBRANCH   8  11
ENDBRANCH   7   8
ENDBRANCH   1   7
BRANCH   6  13
ATOM     13  N   LIG d   1      -1.525  77.898 117.592  0.00  0.00    -0.311 N 
ATOM     14  C   LIG d   1      -0.716  77.617 118.612  0.00  0.00     0.210 C 
ATOM     15  C   LIG d   1       0.361  78.670 118.893  0.00  0.00     0.109 C 
ATOM     16  O   LIG d   1      -0.769  76.581 119.292  0.00  0.00    -0.276 OA
ATOM     17  H   LIG d   1      -1.391  78.746 117.076  0.00  0.00     0.149 HD
ENDBRANCH   6  13
BRANCH   5  18
ATOM     18  N   LIG d   1      -1.196  75.080 116.459  0.00  0.00     0.381 N 
ATOM     19  H   LIG d   1      -1.142  74.332 115.797  0.00  0.00    -0.090 HD
ATOM     20  H   LIG d   1      -1.451  74.694 117.351  0.00  0.00    -0.090 HD
ATOM     21  H   LIG d   1      -0.314  75.538 116.527  0.00  0.00    -0.090 HD
ENDBRANCH   5  18
BRANCH   3  22
ATOM     22  C   LIG d   1      -5.469  75.586 114.355  0.00  0.00     0.382 C 
ATOM     23  O   LIG d   1      -5.776  74.371 114.315  0.00  0.00    -0.241 OA
ATOM     24  O   LIG d   1      -5.942  76.368 113.508  0.00  0.00    -0.241 OA
ENDBRANCH   3  22
TORSDOF 7
ENDMDL
MODEL 8
REMARK VINA RESULT:      -5.3      2.479      5.044
REMARK  7 active torsions:
REMARK  status: ('A' for Active; 'I' for Inactive)
REMARK    1  A    between atoms: C_2  and  C_3 
REMARK    2  A    between atoms: C_3  and  O_6 
REMARK    3  A    between atoms: C_3  and  C_4 
REMARK    4  A    between atoms: C_7  and  O_6 
REMARK    5  A    between atoms: C_9  and  C_10 
REMARK    6  A    between atoms: N_15  and  C_14 
REMARK    7  A    between atoms: N_20  and  C_19 
REMARK       I    between atoms: C_22  and  N_20 
ROOT
ATOM      1  C   LIG d   1      -3.061  90.170 118.449  0.00  0.00     0.161 C 
ATOM      2  C   LIG d   1      -4.251  89.932 117.741  0.00  0.00     0.016 C 
ATOM      3  C   LIG d   1      -5.173  90.950 117.405  0.00  0.00     0.038 C 
ATOM      4  C   LIG d   1      -4.892  92.306 117.624  0.00  0.00     0.028 C 
ATOM      5  C   LIG d   1      -3.935  92.547 118.787  0.00  0.00    -0.047 C 
ATOM      6  C   LIG d   1      -2.684  91.659 118.599  0.00  0.00     0.091 C 
ENDROOT
BRANCH   1   7
ATOM      7  O   LIG d   1      -1.977  89.438 117.843  0.00  0.00    -0.368 OA
BRANCH   7   8
ATOM      8  C   LIG d   1      -1.776  88.085 118.322  0.00  0.00     0.119 C 
BRANCH   8   9
ATOM      9  C   LIG d   1      -1.511  88.165 119.838  0.00  0.00     0.028 C 
ATOM     10  C   LIG d   1      -2.586  87.436 120.661  0.00  0.00     0.006 C 
ENDBRANCH   8   9
BRANCH   8  11
ATOM     11  C   LIG d   1      -0.511  87.464 117.722  0.00  0.00     0.028 C 
ATOM     12  C   LIG d   1      -0.187  86.083 118.314  0.00  0.00     0.006 C 
ENDBRANCH   8  11
ENDBRANCH   7   8
ENDBRANCH   1   7
BRANCH   6  13
ATOM     13  N   LIG d   1      -1.734  91.770 119.736  0.00  0.00    -0.311 N 
ATOM     14  C   LIG d   1      -0.485  92.213 119.607  0.00  0.00     0.210 C 
ATOM     15  C   LIG d   1       0.333  92.229 120.902  0.00  0.00     0.109 C 
ATOM     16  O   LIG d   1       0.014  92.624 118.548  0.00  0.00    -0.276 OA
ATOM     17  H   LIG d   1      -2.066  91.488 120.637  0.00  0.00     0.149 HD
ENDBRANCH   6  13
BRANCH   5  18
ATOM     18  N   LIG d   1      -3.622  93.988 118.815  0.00  0.00     0.381 N 
ATOM     19  H   LIG d   1      -3.437  94.276 119.755  0.00  0.00    -0.090 HD
ATOM     20  H   LIG d   1      -4.419  94.501 118.479  0.00  0.00    -0.090 HD
ATOM     21  H   LIG d   1      -2.831  94.177 118.240  0.00  0.00    -0.090 HD
ENDBRANCH   5  18
BRANCH   3  22
ATOM     22  C   LIG d   1      -6.410  90.609 116.879  0.00  0.00     0.382 C 
ATOM     23  O   LIG d   1      -7.436  91.240 117.231  0.00  0.00    -0.241 OA
ATOM     24  O   LIG d   1      -6.519  89.651 116.090  0.00  0.00    -0.241 OA
ENDBRANCH   3  22
TORSDOF 7
ENDMDL
MODEL 9
REMARK VINA RESULT:      -5.3     18.872     22.288
REMARK  7 active torsions:
REMARK  status: ('A' for Active; 'I' for Inactive)
REMARK    1  A    between atoms: C_2  and  C_3 
REMARK    2  A    between atoms: C_3  and  O_6 
REMARK    3  A    between atoms: C_3  and  C_4 
REMARK    4  A    between atoms: C_7  and  O_6 
REMARK    5  A    between atoms: C_9  and  C_10 
REMARK    6  A    between atoms: N_15  and  C_14 
REMARK    7  A    between atoms: N_20  and  C_19 
REMARK       I    between atoms: C_22  and  N_20 
ROOT
ATOM      1  C   LIG d   1      10.591  78.009 114.586  0.00  0.00     0.161 C 
ATOM      2  C   LIG d   1       9.725  76.903 114.626  0.00  0.00     0.016 C 
ATOM      3  C   LIG d   1      10.158  75.569 114.447  0.00  0.00     0.038 C 
ATOM      4  C   LIG d   1      11.519  75.236 114.365  0.00  0.00     0.028 C 
ATOM      5  C   LIG d   1      12.386  76.363 113.814  0.00  0.00    -0.047 C 
ATOM      6  C   LIG d   1      12.093  77.656 114.609  0.00  0.00     0.091 C 
ENDROOT
BRANCH   1   7
ATOM      7  O   LIG d   1      10.274  78.917 115.660  0.00  0.00    -0.368 OA
BRANCH   7   8
ATOM      8  C   LIG d   1       9.784  78.312 116.882  0.00  0.00     0.119 C 
BRANCH   8   9
ATOM      9  C   LIG d   1       8.624  79.186 117.398  0.00  0.00     0.028 C 
ATOM     10  C   LIG d   1       7.313  78.931 116.636  0.00  0.00     0.006 C 
ENDBRANCH   8   9
BRANCH   8  11
ATOM     11  C   LIG d   1      10.844  78.352 117.987  0.00  0.00     0.028 C 
ATOM     12  C   LIG d   1      11.558  77.004 118.175  0.00  0.00     0.006 C 
ENDBRANCH   8  11
ENDBRANCH   7   8
ENDBRANCH   1   7
BRANCH   6  13
ATOM     13  N   LIG d   1      12.838  78.828 114.080  0.00  0.00    -0.311 N 
ATOM     14  C   LIG d   1      14.020  79.219 114.553  0.00  0.00     0.210 C 
ATOM     15  C   LIG d   1      14.607  80.464 113.879  0.00  0.00     0.109 C 
ATOM     16  O   LIG d   1      14.654  78.635 115.445  0.00  0.00    -0.276 OA
ATOM     17  H   LIG d   1      12.412  79.341 113.334  0.00  0.00     0.149 HD
ENDBRANCH   6  13
BRANCH   5  18
ATOM     18  N   LIG d   1      13.793  75.930 113.913  0.00  0.00     0.381 N 
ATOM     19  H   LIG d   1      14.163  75.770 112.997  0.00  0.00    -0.090 HD
ATOM     20  H   LIG d   1      13.833  75.067 114.424  0.00  0.00    -0.090 HD
ATOM     21  H   LIG d   1      14.332  76.626 114.380  0.00  0.00    -0.090 HD
ENDBRANCH   5  18
BRANCH   3  22
ATOM     22  C   LIG d   1       9.222  74.556 114.307  0.00  0.00     0.382 C 
ATOM     23  O   LIG d   1       9.334  73.503 114.980  0.00  0.00    -0.241 OA
ATOM     24  O   LIG d   1       8.293  74.663 113.485  0.00  0.00    -0.241 OA
ENDBRANCH   3  22
TORSDOF 7
ENDMDL
