MODEL 1
REMARK VINA RESULT:      -6.1      0.000      0.000
REMARK  7 active torsions:
REMARK  status: ('A' for Active; 'I' for Inactive)
REMARK    1  A    between atoms: C_2  and  C_3 
REMARK    2  A    between atoms: C_3  and  O_6 
REMARK    3  A    between atoms: C_3  and  C_4 
REMARK    4  A    between atoms: C_7  and  O_6 
REMARK    5  A    between atoms: C_9  and  C_10 
REMARK    6  A    between atoms: N_15  and  C_14 
REMARK    7  A    between atoms: N_20  and  C_19 
REMARK       I    between atoms: C_22  and  N_20 
ROOT
ATOM      1  C   LIG d   1      -8.190  75.316 116.863  0.00  0.00     0.161 C 
ATOM      2  C   LIG d   1      -7.225  75.032 115.882  0.00  0.00     0.016 C 
ATOM      3  C   LIG d   1      -6.109  75.862 115.625  0.00  0.00     0.038 C 
ATOM      4  C   LIG d   1      -5.799  76.961 116.439  0.00  0.00     0.028 C 
ATOM      5  C   LIG d   1      -7.019  77.572 117.122  0.00  0.00    -0.047 C 
ATOM      6  C   LIG d   1      -7.808  76.451 117.835  0.00  0.00     0.091 C 
ENDROOT
BRANCH   1   7
ATOM      7  O   LIG d   1      -8.510  74.116 117.594  0.00  0.00    -0.368 OA
BRANCH   7   8
ATOM      8  C   LIG d   1      -9.703  73.411 117.171  0.00  0.00     0.119 C 
BRANCH   8   9
ATOM      9  C   LIG d   1     -10.768  73.604 118.268  0.00  0.00     0.028 C 
ATOM     10  C   LIG d   1     -11.847  74.625 117.866  0.00  0.00     0.006 C 
ENDBRANCH   8   9
BRANCH   8  11
ATOM     11  C   LIG d   1      -9.463  71.900 117.101  0.00  0.00     0.028 C 
ATOM     12  C   LIG d   1      -8.009  71.544 116.753  0.00  0.00     0.006 C 
ENDBRANCH   8  11
ENDBRANCH   7   8
ENDBRANCH   1   7
BRANCH   6  13
ATOM     13  N   LIG d   1      -9.062  76.950 118.458  0.00  0.00    -0.311 N 
ATOM     14  C   LIG d   1      -9.358  76.782 119.746  0.00  0.00     0.210 C 
ATOM     15  C   LIG d   1     -10.711  77.356 120.179  0.00  0.00     0.109 C 
ATOM     16  O   LIG d   1      -8.615  76.240 120.578  0.00  0.00    -0.276 OA
ATOM     17  H   LIG d   1      -9.709  77.428 117.862  0.00  0.00     0.149 HD
ENDBRANCH   6  13
BRANCH   5  18
ATOM     18  N   LIG d   1      -6.536  78.617 118.044  0.00  0.00     0.381 N 
ATOM     19  H   LIG d   1      -7.306  79.175 118.356  0.00  0.00    -0.090 HD
ATOM     20  H   LIG d   1      -5.893  79.212 117.553  0.00  0.00    -0.090 HD
ATOM     21  H   LIG d   1      -6.082  78.198 118.826  0.00  0.00    -0.090 HD
ENDBRANCH   5  18
BRANCH   3  22
ATOM     22  C   LIG d   1      -5.312  75.618 114.517  0.00  0.00     0.382 C 
ATOM     23  O   LIG d   1      -5.257  76.457 113.586  0.00  0.00    -0.241 OA
ATOM     24  O   LIG d   1      -4.681  74.548 114.416  0.00  0.00    -0.241 OA
ENDBRANCH   3  22
TORSDOF 7
ENDMDL
MODEL 2
REMARK VINA RESULT:      -5.6      2.990      5.244
REMARK  7 active torsions:
REMARK  status: ('A' for Active; 'I' for Inactive)
REMARK    1  A    between atoms: C_2  and  C_3 
REMARK    2  A    between atoms: C_3  and  O_6 
REMARK    3  A    between atoms: C_3  and  C_4 
REMARK    4  A    between atoms: C_7  and  O_6 
REMARK    5  A    between atoms: C_9  and  C_10 
REMARK    6  A    between atoms: N_15  and  C_14 
REMARK    7  A    between atoms: N_20  and  C_19 
REMARK       I    between atoms: C_22  and  N_20 
ROOT
ATOM      1  C   LIG d   1      -9.451  77.509 118.499  0.00  0.00     0.161 C 
ATOM      2  C   LIG d   1      -8.287  77.654 117.726  0.00  0.00     0.016 C 
ATOM      3  C   LIG d   1      -7.789  76.644 116.872  0.00  0.00     0.038 C 
ATOM      4  C   LIG d   1      -8.508  75.467 116.617  0.00  0.00     0.028 C 
ATOM      5  C   LIG d   1      -9.433  75.063 117.760  0.00  0.00    -0.047 C 
ATOM      6  C   LIG d   1     -10.310  76.275 118.149  0.00  0.00     0.091 C 
ENDROOT
BRANCH   1   7
ATOM      7  O   LIG d   1     -10.244  78.710 118.420  0.00  0.00    -0.368 OA
BRANCH   7   8
ATOM      8  C   LIG d   1      -9.511  79.960 118.441  0.00  0.00     0.119 C 
BRANCH   8   9
ATOM      9  C   LIG d   1      -9.500  80.465 119.897  0.00  0.00     0.028 C 
ATOM     10  C   LIG d   1      -8.107  80.368 120.541  0.00  0.00     0.006 C 
ENDBRANCH   8   9
BRANCH   8  11
ATOM     11  C   LIG d   1     -10.238  81.045 117.641  0.00  0.00     0.028 C 
ATOM     12  C   LIG d   1      -9.396  82.318 117.464  0.00  0.00     0.006 C 
ENDBRANCH   8  11
ENDBRANCH   7   8
ENDBRANCH   1   7
BRANCH   6  13
ATOM     13  N   LIG d   1     -11.185  75.991 119.316  0.00  0.00    -0.311 N 
ATOM     14  C   LIG d   1     -12.439  75.558 119.204  0.00  0.00     0.210 C 
ATOM     15  C   LIG d   1     -13.172  75.346 120.532  0.00  0.00     0.109 C 
ATOM     16  O   LIG d   1     -13.005  75.300 118.130  0.00  0.00    -0.276 OA
ATOM     17  H   LIG d   1     -10.796  76.144 120.226  0.00  0.00     0.149 HD
ENDBRANCH   6  13
BRANCH   5  18
ATOM     18  N   LIG d   1     -10.222  73.902 117.306  0.00  0.00     0.381 N 
ATOM     19  H   LIG d   1      -9.647  73.299 116.751  0.00  0.00    -0.090 HD
ATOM     20  H   LIG d   1     -10.981  74.228 116.734  0.00  0.00    -0.090 HD
ATOM     21  H   LIG d   1     -10.578  73.403 118.091  0.00  0.00    -0.090 HD
ENDBRANCH   5  18
BRANCH   3  22
ATOM     22  C   LIG d   1      -6.537  76.789 116.294  0.00  0.00     0.382 C 
ATOM     23  O   LIG d   1      -5.996  75.815 115.717  0.00  0.00    -0.241 OA
ATOM     24  O   LIG d   1      -5.922  77.869 116.379  0.00  0.00    -0.241 OA
ENDBRANCH   3  22
TORSDOF 7
ENDMDL
MODEL 3
REMARK VINA RESULT:      -5.4     16.351     18.634
REMARK  7 active torsions:
REMARK  status: ('A' for Active; 'I' for Inactive)
REMARK    1  A    between atoms: C_2  and  C_3 
REMARK    2  A    between atoms: C_3  and  O_6 
REMARK    3  A    between atoms: C_3  and  C_4 
REMARK    4  A    between atoms: C_7  and  O_6 
REMARK    5  A    between atoms: C_9  and  C_10 
REMARK    6  A    between atoms: N_15  and  C_14 
REMARK    7  A    between atoms: N_20  and  C_19 
REMARK       I    between atoms: C_22  and  N_20 
ROOT
ATOM      1  C   LIG d   1      -6.437  93.621 117.586  0.00  0.00     0.161 C 
ATOM      2  C   LIG d   1      -7.177  92.634 116.914  0.00  0.00     0.016 C 
ATOM      3  C   LIG d   1      -6.619  91.416 116.462  0.00  0.00     0.038 C 
ATOM      4  C   LIG d   1      -5.308  91.035 116.787  0.00  0.00     0.028 C 
ATOM      5  C   LIG d   1      -4.376  92.218 117.028  0.00  0.00    -0.047 C 
ATOM      6  C   LIG d   1      -5.034  93.176 118.048  0.00  0.00     0.091 C 
ENDROOT
BRANCH   1   7
ATOM      7  O   LIG d   1      -7.196  94.124 118.704  0.00  0.00    -0.368 OA
BRANCH   7   8
ATOM      8  C   LIG d   1      -8.105  95.215 118.418  0.00  0.00     0.119 C 
BRANCH   8   9
ATOM      9  C   LIG d   1      -7.251  96.450 118.072  0.00  0.00     0.028 C 
ATOM     10  C   LIG d   1      -6.501  97.006 119.294  0.00  0.00     0.006 C 
ENDBRANCH   8   9
BRANCH   8  11
ATOM     11  C   LIG d   1      -8.908  95.612 119.660  0.00  0.00     0.028 C 
ATOM     12  C   LIG d   1      -9.071  94.455 120.659  0.00  0.00     0.006 C 
ENDBRANCH   8  11
ENDBRANCH   7   8
ENDBRANCH   1   7
BRANCH   6  13
ATOM     13  N   LIG d   1      -4.225  94.401 118.277  0.00  0.00    -0.311 N 
ATOM     14  C   LIG d   1      -3.333  94.518 119.259  0.00  0.00     0.210 C 
ATOM     15  C   LIG d   1      -2.623  95.874 119.330  0.00  0.00     0.109 C 
ATOM     16  O   LIG d   1      -3.039  93.616 120.058  0.00  0.00    -0.276 OA
ATOM     17  H   LIG d   1      -4.378  95.171 117.655  0.00  0.00     0.149 HD
ENDBRANCH   6  13
BRANCH   5  18
ATOM     18  N   LIG d   1      -3.083  91.679 117.492  0.00  0.00     0.381 N 
ATOM     19  H   LIG d   1      -3.176  91.333 118.426  0.00  0.00    -0.090 HD
ATOM     20  H   LIG d   1      -2.405  92.420 117.496  0.00  0.00    -0.090 HD
ATOM     21  H   LIG d   1      -2.783  90.947 116.887  0.00  0.00    -0.090 HD
ENDBRANCH   5  18
BRANCH   3  22
ATOM     22  C   LIG d   1      -7.362  90.582 115.641  0.00  0.00     0.382 C 
ATOM     23  O   LIG d   1      -7.600  90.919 114.456  0.00  0.00    -0.241 OA
ATOM     24  O   LIG d   1      -7.836  89.519 116.083  0.00  0.00    -0.241 OA
ENDBRANCH   3  22
TORSDOF 7
ENDMDL
MODEL 4
REMARK VINA RESULT:      -5.4     16.041     18.339
REMARK  7 active torsions:
REMARK  status: ('A' for Active; 'I' for Inactive)
REMARK    1  A    between atoms: C_2  and  C_3 
REMARK    2  A    between atoms: C_3  and  O_6 
REMARK    3  A    between atoms: C_3  and  C_4 
REMARK    4  A    between atoms: C_7  and  O_6 
REMARK    5  A    between atoms: C_9  and  C_10 
REMARK    6  A    between atoms: N_15  and  C_14 
REMARK    7  A    between atoms: N_20  and  C_19 
REMARK       I    between atoms: C_22  and  N_20 
ROOT
ATOM      1  C   LIG d   1      -4.684  92.609 117.747  0.00  0.00     0.161 C 
ATOM      2  C   LIG d   1      -4.819  91.591 116.789  0.00  0.00     0.016 C 
ATOM      3  C   LIG d   1      -6.002  91.372 116.047  0.00  0.00     0.038 C 
ATOM      4  C   LIG d   1      -7.088  92.258 116.106  0.00  0.00     0.028 C 
ATOM      5  C   LIG d   1      -7.188  93.008 117.430  0.00  0.00    -0.047 C 
ATOM      6  C   LIG d   1      -5.819  93.654 117.744  0.00  0.00     0.091 C 
ENDROOT
BRANCH   1   7
ATOM      7  O   LIG d   1      -3.406  93.258 117.594  0.00  0.00    -0.368 OA
BRANCH   7   8
ATOM      8  C   LIG d   1      -2.300  92.667 118.319  0.00  0.00     0.119 C 
BRANCH   8   9
ATOM      9  C   LIG d   1      -2.590  92.836 119.823  0.00  0.00     0.028 C 
ATOM     10  C   LIG d   1      -2.361  94.277 120.307  0.00  0.00     0.006 C 
ENDBRANCH   8   9
BRANCH   8  11
ATOM     11  C   LIG d   1      -0.997  93.432 118.069  0.00  0.00     0.028 C 
ATOM     12  C   LIG d   1       0.149  92.521 117.602  0.00  0.00     0.006 C 
ENDBRANCH   8  11
ENDBRANCH   7   8
ENDBRANCH   1   7
BRANCH   6  13
ATOM     13  N   LIG d   1      -5.805  94.337 119.064  0.00  0.00    -0.311 N 
ATOM     14  C   LIG d   1      -6.108  95.624 119.227  0.00  0.00     0.210 C 
ATOM     15  C   LIG d   1      -6.011  96.133 120.669  0.00  0.00     0.109 C 
ATOM     16  O   LIG d   1      -6.480  96.383 118.320  0.00  0.00    -0.276 OA
ATOM     17  H   LIG d   1      -5.545  93.787 119.860  0.00  0.00     0.149 HD
ENDBRANCH   6  13
BRANCH   5  18
ATOM     18  N   LIG d   1      -8.277  93.994 117.303  0.00  0.00     0.381 N 
ATOM     19  H   LIG d   1      -8.979  93.814 117.993  0.00  0.00    -0.090 HD
ATOM     20  H   LIG d   1      -8.697  93.900 116.395  0.00  0.00    -0.090 HD
ATOM     21  H   LIG d   1      -7.918  94.916 117.417  0.00  0.00    -0.090 HD
ENDBRANCH   5  18
BRANCH   3  22
ATOM     22  C   LIG d   1      -6.123  90.234 115.265  0.00  0.00     0.382 C 
ATOM     23  O   LIG d   1      -7.222  89.955 114.728  0.00  0.00    -0.241 OA
ATOM     24  O   LIG d   1      -5.158  89.458 115.126  0.00  0.00    -0.241 OA
ENDBRANCH   3  22
TORSDOF 7
ENDMDL
MODEL 5
REMARK VINA RESULT:      -5.4     15.465     17.779
REMARK  7 active torsions:
REMARK  status: ('A' for Active; 'I' for Inactive)
REMARK    1  A    between atoms: C_2  and  C_3 
REMARK    2  A    between atoms: C_3  and  O_6 
REMARK    3  A    between atoms: C_3  and  C_4 
REMARK    4  A    between atoms: C_7  and  O_6 
REMARK    5  A    between atoms: C_9  and  C_10 
REMARK    6  A    between atoms: N_15  and  C_14 
REMARK    7  A    between atoms: N_20  and  C_19 
REMARK       I    between atoms: C_22  and  N_20 
ROOT
ATOM      1  C   LIG d   1      -4.279  91.960 117.913  0.00  0.00     0.161 C 
ATOM      2  C   LIG d   1      -4.822  91.143 116.907  0.00  0.00     0.016 C 
ATOM      3  C   LIG d   1      -5.934  91.514 116.118  0.00  0.00     0.038 C 
ATOM      4  C   LIG d   1      -6.489  92.801 116.178  0.00  0.00     0.028 C 
ATOM      5  C   LIG d   1      -6.297  93.481 117.529  0.00  0.00    -0.047 C 
ATOM      6  C   LIG d   1      -4.802  93.412 117.917  0.00  0.00     0.091 C 
ENDROOT
BRANCH   1   7
ATOM      7  O   LIG d   1      -2.841  91.946 117.831  0.00  0.00    -0.368 OA
BRANCH   7   8
ATOM      8  C   LIG d   1      -2.154  91.146 118.825  0.00  0.00     0.119 C 
BRANCH   8   9
ATOM      9  C   LIG d   1      -1.024  92.011 119.416  0.00  0.00     0.028 C 
ATOM     10  C   LIG d   1      -0.233  92.764 118.333  0.00  0.00     0.006 C 
ENDBRANCH   8   9
BRANCH   8  11
ATOM     11  C   LIG d   1      -1.451  89.945 118.184  0.00  0.00     0.028 C 
ATOM     12  C   LIG d   1      -2.313  88.672 118.200  0.00  0.00     0.006 C 
ENDBRANCH   8  11
ENDBRANCH   7   8
ENDBRANCH   1   7
BRANCH   6  13
ATOM     13  N   LIG d   1      -4.539  93.981 119.265  0.00  0.00    -0.311 N 
ATOM     14  C   LIG d   1      -3.530  94.808 119.528  0.00  0.00     0.210 C 
ATOM     15  C   LIG d   1      -3.428  95.261 120.988  0.00  0.00     0.109 C 
ATOM     16  O   LIG d   1      -2.728  95.236 118.684  0.00  0.00    -0.276 OA
ATOM     17  H   LIG d   1      -5.161  93.711 120.003  0.00  0.00     0.149 HD
ENDBRANCH   6  13
BRANCH   5  18
ATOM     18  N   LIG d   1      -6.799  94.863 117.408  0.00  0.00     0.381 N 
ATOM     19  H   LIG d   1      -7.754  94.851 117.109  0.00  0.00    -0.090 HD
ATOM     20  H   LIG d   1      -6.258  95.346 116.714  0.00  0.00    -0.090 HD
ATOM     21  H   LIG d   1      -6.724  95.331 118.284  0.00  0.00    -0.090 HD
ENDBRANCH   5  18
BRANCH   3  22
ATOM     22  C   LIG d   1      -6.527  90.579 115.283  0.00  0.00     0.382 C 
ATOM     23  O   LIG d   1      -7.700  90.759 114.874  0.00  0.00    -0.241 OA
ATOM     24  O   LIG d   1      -5.922  89.537 114.970  0.00  0.00    -0.241 OA
ENDBRANCH   3  22
TORSDOF 7
ENDMDL
MODEL 6
REMARK VINA RESULT:      -5.4      2.683      4.165
REMARK  7 active torsions:
REMARK  status: ('A' for Active; 'I' for Inactive)
REMARK    1  A    between atoms: C_2  and  C_3 
REMARK    2  A    between atoms: C_3  and  O_6 
REMARK    3  A    between atoms: C_3  and  C_4 
REMARK    4  A    between atoms: C_7  and  O_6 
REMARK    5  A    between atoms: C_9  and  C_10 
REMARK    6  A    between atoms: N_15  and  C_14 
REMARK    7  A    between atoms: N_20  and  C_19 
REMARK       I    between atoms: C_22  and  N_20 
ROOT
ATOM      1  C   LIG d   1      -8.957  77.324 118.038  0.00  0.00     0.161 C 
ATOM      2  C   LIG d   1      -8.039  78.345 117.741  0.00  0.00     0.016 C 
ATOM      3  C   LIG d   1      -8.018  79.591 118.410  0.00  0.00     0.038 C 
ATOM      4  C   LIG d   1      -8.822  79.844 119.532  0.00  0.00     0.028 C 
ATOM      5  C   LIG d   1     -10.112  79.031 119.548  0.00  0.00    -0.047 C 
ATOM      6  C   LIG d   1      -9.769  77.540 119.332  0.00  0.00     0.091 C 
ENDROOT
BRANCH   1   7
ATOM      7  O   LIG d   1      -8.278  76.053 118.078  0.00  0.00    -0.368 OA
BRANCH   7   8
ATOM      8  C   LIG d   1      -8.377  75.240 116.883  0.00  0.00     0.119 C 
BRANCH   8   9
ATOM      9  C   LIG d   1      -8.696  73.800 117.329  0.00  0.00     0.028 C 
ATOM     10  C   LIG d   1     -10.196  73.472 117.225  0.00  0.00     0.006 C 
ENDBRANCH   8   9
BRANCH   8  11
ATOM     11  C   LIG d   1      -7.031  75.151 116.157  0.00  0.00     0.028 C 
ATOM     12  C   LIG d   1      -6.920  76.138 114.985  0.00  0.00     0.006 C 
ENDBRANCH   8  11
ENDBRANCH   7   8
ENDBRANCH   1   7
BRANCH   6  13
ATOM     13  N   LIG d   1     -10.982  76.685 119.250  0.00  0.00    -0.311 N 
ATOM     14  C   LIG d   1     -11.200  75.643 120.051  0.00  0.00     0.210 C 
ATOM     15  C   LIG d   1     -12.504  74.885 119.784  0.00  0.00     0.109 C 
ATOM     16  O   LIG d   1     -10.453  75.294 120.977  0.00  0.00    -0.276 OA
ATOM     17  H   LIG d   1     -11.656  76.916 118.546  0.00  0.00     0.149 HD
ENDBRANCH   6  13
BRANCH   5  18
ATOM     18  N   LIG d   1     -10.786  79.290 120.834  0.00  0.00     0.381 N 
ATOM     19  H   LIG d   1     -10.116  79.597 121.511  0.00  0.00    -0.090 HD
ATOM     20  H   LIG d   1     -11.197  78.434 121.164  0.00  0.00    -0.090 HD
ATOM     21  H   LIG d   1     -11.492  79.983 120.717  0.00  0.00    -0.090 HD
ENDBRANCH   5  18
BRANCH   3  22
ATOM     22  C   LIG d   1      -7.213  80.614 117.932  0.00  0.00     0.382 C 
ATOM     23  O   LIG d   1      -7.721  81.561 117.286  0.00  0.00    -0.241 OA
ATOM     24  O   LIG d   1      -5.979  80.578 118.102  0.00  0.00    -0.241 OA
ENDBRANCH   3  22
TORSDOF 7
ENDMDL
MODEL 7
REMARK VINA RESULT:      -5.4      2.098      5.144
REMARK  7 active torsions:
REMARK  status: ('A' for Active; 'I' for Inactive)
REMARK    1  A    between atoms: C_2  and  C_3 
REMARK    2  A    between atoms: C_3  and  O_6 
REMARK    3  A    between atoms: C_3  and  C_4 
REMARK    4  A    between atoms: C_7  and  O_6 
REMARK    5  A    between atoms: C_9  and  C_10 
REMARK    6  A    between atoms: N_15  and  C_14 
REMARK    7  A    between atoms: N_20  and  C_19 
REMARK       I    between atoms: C_22  and  N_20 
ROOT
ATOM      1  C   LIG d   1      -7.733  76.261 116.974  0.00  0.00     0.161 C 
ATOM      2  C   LIG d   1      -8.491  75.079 116.929  0.00  0.00     0.016 C 
ATOM      3  C   LIG d   1      -9.722  74.918 117.605  0.00  0.00     0.038 C 
ATOM      4  C   LIG d   1     -10.357  75.988 118.254  0.00  0.00     0.028 C 
ATOM      5  C   LIG d   1      -9.389  77.056 118.750  0.00  0.00    -0.047 C 
ATOM      6  C   LIG d   1      -8.464  77.475 117.585  0.00  0.00     0.091 C 
ENDROOT
BRANCH   1   7
ATOM      7  O   LIG d   1      -7.247  76.581 115.655  0.00  0.00    -0.368 OA
BRANCH   7   8
ATOM      8  C   LIG d   1      -5.837  76.344 115.421  0.00  0.00     0.119 C 
BRANCH   8   9
ATOM      9  C   LIG d   1      -5.677  74.866 115.015  0.00  0.00     0.028 C 
ATOM     10  C   LIG d   1      -4.295  74.302 115.387  0.00  0.00     0.006 C 
ENDBRANCH   8   9
BRANCH   8  11
ATOM     11  C   LIG d   1      -5.024  76.502 116.709  0.00  0.00     0.028 C 
ATOM     12  C   LIG d   1      -4.170  77.779 116.722  0.00  0.00     0.006 C 
ENDBRANCH   8  11
ENDBRANCH   7   8
ENDBRANCH   1   7
BRANCH   6  13
ATOM     13  N   LIG d   1      -7.430  78.456 118.007  0.00  0.00    -0.311 N 
ATOM     14  C   LIG d   1      -7.596  79.775 117.927  0.00  0.00     0.210 C 
ATOM     15  C   LIG d   1      -6.398  80.607 118.397  0.00  0.00     0.109 C 
ATOM     16  O   LIG d   1      -8.634  80.336 117.543  0.00  0.00    -0.276 OA
ATOM     17  H   LIG d   1      -6.569  78.088 118.361  0.00  0.00     0.149 HD
ENDBRANCH   6  13
BRANCH   5  18
ATOM     18  N   LIG d   1     -10.192  78.173 119.282  0.00  0.00     0.381 N 
ATOM     19  H   LIG d   1     -11.145  78.072 118.994  0.00  0.00    -0.090 HD
ATOM     20  H   LIG d   1      -9.839  79.035 118.905  0.00  0.00    -0.090 HD
ATOM     21  H   LIG d   1     -10.138  78.190 120.276  0.00  0.00    -0.090 HD
ENDBRANCH   5  18
BRANCH   3  22
ATOM     22  C   LIG d   1     -10.312  73.665 117.670  0.00  0.00     0.382 C 
ATOM     23  O   LIG d   1     -11.283  73.468 118.439  0.00  0.00    -0.241 OA
ATOM     24  O   LIG d   1      -9.856  72.717 117.003  0.00  0.00    -0.241 OA
ENDBRANCH   3  22
TORSDOF 7
ENDMDL
MODEL 8
REMARK VINA RESULT:      -5.3      1.969      4.717
REMARK  7 active torsions:
REMARK  status: ('A' for Active; 'I' for Inactive)
REMARK    1  A    between atoms: C_2  and  C_3 
REMARK    2  A    between atoms: C_3  and  O_6 
REMARK    3  A    between atoms: C_3  and  C_4 
REMARK    4  A    between atoms: C_7  and  O_6 
REMARK    5  A    between atoms: C_9  and  C_10 
REMARK    6  A    between atoms: N_15  and  C_14 
REMARK    7  A    between atoms: N_20  and  C_19 
REMARK       I    between atoms: C_22  and  N_20 
ROOT
ATOM      1  C   LIG d   1      -8.677  75.159 117.599  0.00  0.00     0.161 C 
ATOM      2  C   LIG d   1      -8.340  73.845 117.232  0.00  0.00     0.016 C 
ATOM      3  C   LIG d   1      -9.209  72.743 117.403  0.00  0.00     0.038 C 
ATOM      4  C   LIG d   1     -10.539  72.904 117.817  0.00  0.00     0.028 C 
ATOM      5  C   LIG d   1     -10.760  74.145 118.677  0.00  0.00    -0.047 C 
ATOM      6  C   LIG d   1     -10.164  75.372 117.949  0.00  0.00     0.091 C 
ENDROOT
BRANCH   1   7
ATOM      7  O   LIG d   1      -8.270  76.075 116.563  0.00  0.00    -0.368 OA
BRANCH   7   8
ATOM      8  C   LIG d   1      -6.846  76.319 116.451  0.00  0.00     0.119 C 
BRANCH   8   9
ATOM      9  C   LIG d   1      -6.590  77.774 116.887  0.00  0.00     0.028 C 
ATOM     10  C   LIG d   1      -6.359  77.901 118.402  0.00  0.00     0.006 C 
ENDBRANCH   8   9
BRANCH   8  11
ATOM     11  C   LIG d   1      -6.381  76.244 114.993  0.00  0.00     0.028 C 
ATOM     12  C   LIG d   1      -5.378  75.106 114.746  0.00  0.00     0.006 C 
ENDBRANCH   8  11
ENDBRANCH   7   8
ENDBRANCH   1   7
BRANCH   6  13
ATOM     13  N   LIG d   1     -10.263  76.614 118.759  0.00  0.00    -0.311 N 
ATOM     14  C   LIG d   1      -9.641  76.780 119.925  0.00  0.00     0.210 C 
ATOM     15  C   LIG d   1      -9.892  78.129 120.606  0.00  0.00     0.109 C 
ATOM     16  O   LIG d   1      -8.879  75.951 120.445  0.00  0.00    -0.276 OA
ATOM     17  H   LIG d   1     -10.835  77.351 118.396  0.00  0.00     0.149 HD
ENDBRANCH   6  13
BRANCH   5  18
ATOM     18  N   LIG d   1     -12.209  74.265 118.922  0.00  0.00     0.381 N 
ATOM     19  H   LIG d   1     -12.598  73.361 119.102  0.00  0.00    -0.090 HD
ATOM     20  H   LIG d   1     -12.648  74.640 118.099  0.00  0.00    -0.090 HD
ATOM     21  H   LIG d   1     -12.375  74.866 119.699  0.00  0.00    -0.090 HD
ENDBRANCH   5  18
BRANCH   3  22
ATOM     22  C   LIG d   1      -8.735  71.456 117.197  0.00  0.00     0.382 C 
ATOM     23  O   LIG d   1      -9.365  70.474 117.658  0.00  0.00    -0.241 OA
ATOM     24  O   LIG d   1      -7.661  71.267 116.595  0.00  0.00    -0.241 OA
ENDBRANCH   3  22
TORSDOF 7
ENDMDL
MODEL 9
REMARK VINA RESULT:      -4.8     14.736     17.098
REMARK  7 active torsions:
REMARK  status: ('A' for Active; 'I' for Inactive)
REMARK    1  A    between atoms: C_2  and  C_3 
REMARK    2  A    between atoms: C_3  and  O_6 
REMARK    3  A    between atoms: C_3  and  C_4 
REMARK    4  A    between atoms: C_7  and  O_6 
REMARK    5  A    between atoms: C_9  and  C_10 
REMARK    6  A    between atoms: N_15  and  C_14 
REMARK    7  A    between atoms: N_20  and  C_19 
REMARK       I    between atoms: C_22  and  N_20 
ROOT
ATOM      1  C   LIG d   1      -3.200  90.978 117.978  0.00  0.00     0.161 C 
ATOM      2  C   LIG d   1      -4.161  90.502 117.070  0.00  0.00     0.016 C 
ATOM      3  C   LIG d   1      -5.233  91.288 116.589  0.00  0.00     0.038 C 
ATOM      4  C   LIG d   1      -5.332  92.659 116.869  0.00  0.00     0.028 C 
ATOM      5  C   LIG d   1      -4.670  93.058 118.184  0.00  0.00    -0.047 C 
ATOM      6  C   LIG d   1      -3.227  92.504 118.208  0.00  0.00     0.091 C 
ENDROOT
BRANCH   1   7
ATOM      7  O   LIG d   1      -1.885  90.558 117.562  0.00  0.00    -0.368 OA
BRANCH   7   8
ATOM      8  C   LIG d   1      -1.217  89.608 118.428  0.00  0.00     0.119 C 
BRANCH   8   9
ATOM      9  C   LIG d   1      -1.034  88.302 117.630  0.00  0.00     0.028 C 
ATOM     10  C   LIG d   1       0.347  88.213 116.960  0.00  0.00     0.006 C 
ENDBRANCH   8   9
BRANCH   8  11
ATOM     11  C   LIG d   1      -2.094  89.231 119.626  0.00  0.00     0.028 C 
ATOM     12  C   LIG d   1      -2.394  87.726 119.695  0.00  0.00     0.006 C 
ENDBRANCH   8  11
ENDBRANCH   7   8
ENDBRANCH   1   7
BRANCH   6  13
ATOM     13  N   LIG d   1      -2.536  92.777 119.495  0.00  0.00    -0.311 N 
ATOM     14  C   LIG d   1      -1.761  93.840 119.699  0.00  0.00     0.210 C 
ATOM     15  C   LIG d   1      -1.128  93.921 121.092  0.00  0.00     0.109 C 
ATOM     16  O   LIG d   1      -1.563  94.741 118.870  0.00  0.00    -0.276 OA
ATOM     17  H   LIG d   1      -2.667  92.113 120.233  0.00  0.00     0.149 HD
ENDBRANCH   6  13
BRANCH   5  18
ATOM     18  N   LIG d   1      -4.726  94.528 118.283  0.00  0.00     0.381 N 
ATOM     19  H   LIG d   1      -4.031  94.851 118.926  0.00  0.00    -0.090 HD
ATOM     20  H   LIG d   1      -5.629  94.796 118.634  0.00  0.00    -0.090 HD
ATOM     21  H   LIG d   1      -4.575  94.937 117.387  0.00  0.00    -0.090 HD
ENDBRANCH   5  18
BRANCH   3  22
ATOM     22  C   LIG d   1      -6.245  90.692 115.851  0.00  0.00     0.382 C 
ATOM     23  O   LIG d   1      -5.996  89.684 115.147  0.00  0.00    -0.241 OA
ATOM     24  O   LIG d   1      -7.393  91.176 115.846  0.00  0.00    -0.241 OA
ENDBRANCH   3  22
TORSDOF 7
ENDMDL
