MODEL 1
REMARK VINA RESULT:      -6.2      0.000      0.000
REMARK  7 active torsions:
REMARK  status: ('A' for Active; 'I' for Inactive)
REMARK    1  A    between atoms: C_2  and  C_3 
REMARK    2  A    between atoms: C_3  and  O_6 
REMARK    3  A    between atoms: C_3  and  C_4 
REMARK    4  A    between atoms: C_7  and  O_6 
REMARK    5  A    between atoms: C_9  and  C_10 
REMARK    6  A    between atoms: N_15  and  C_14 
REMARK    7  A    between atoms: N_20  and  C_19 
REMARK       I    between atoms: C_22  and  N_20 
ROOT
ATOM      1  C   LIG d   1      -7.308  77.474 117.253  0.00  0.00     0.161 C 
ATOM      2  C   LIG d   1      -8.530  78.139 117.447  0.00  0.00     0.016 C 
ATOM      3  C   LIG d   1      -8.628  79.521 117.732  0.00  0.00     0.038 C 
ATOM      4  C   LIG d   1      -7.510  80.366 117.693  0.00  0.00     0.028 C 
ATOM      5  C   LIG d   1      -6.198  79.651 118.000  0.00  0.00    -0.047 C 
ATOM      6  C   LIG d   1      -6.085  78.401 117.097  0.00  0.00     0.091 C 
ENDROOT
BRANCH   1   7
ATOM      7  O   LIG d   1      -7.410  76.584 116.124  0.00  0.00    -0.368 OA
BRANCH   7   8
ATOM      8  C   LIG d   1      -7.612  75.183 116.433  0.00  0.00     0.119 C 
BRANCH   8   9
ATOM      9  C   LIG d   1      -6.570  74.378 115.632  0.00  0.00     0.028 C 
ATOM     10  C   LIG d   1      -5.959  75.192 114.479  0.00  0.00     0.006 C 
ENDBRANCH   8   9
BRANCH   8  11
ATOM     11  C   LIG d   1      -8.974  74.693 115.935  0.00  0.00     0.028 C 
ATOM     12  C   LIG d   1      -9.076  73.160 115.890  0.00  0.00     0.006 C 
ENDBRANCH   8  11
ENDBRANCH   7   8
ENDBRANCH   1   7
BRANCH   6  13
ATOM     13  N   LIG d   1      -4.870  77.597 117.391  0.00  0.00    -0.311 N 
ATOM     14  C   LIG d   1      -3.875  77.428 116.523  0.00  0.00     0.210 C 
ATOM     15  C   LIG d   1      -2.726  76.545 117.021  0.00  0.00     0.109 C 
ATOM     16  O   LIG d   1      -3.820  77.951 115.400  0.00  0.00    -0.276 OA
ATOM     17  H   LIG d   1      -4.818  77.163 118.292  0.00  0.00     0.149 HD
ENDBRANCH   6  13
BRANCH   5  18
ATOM     18  N   LIG d   1      -5.104  80.617 117.789  0.00  0.00     0.381 N 
ATOM     19  H   LIG d   1      -4.910  81.101 118.643  0.00  0.00    -0.090 HD
ATOM     20  H   LIG d   1      -5.393  81.292 117.103  0.00  0.00    -0.090 HD
ATOM     21  H   LIG d   1      -4.286  80.143 117.475  0.00  0.00    -0.090 HD
ENDBRANCH   5  18
BRANCH   3  22
ATOM     22  C   LIG d   1      -9.850  80.062 118.100  0.00  0.00     0.382 C 
ATOM     23  O   LIG d   1     -10.315  79.841 119.245  0.00  0.00    -0.241 OA
ATOM     24  O   LIG d   1     -10.515  80.731 117.287  0.00  0.00    -0.241 OA
ENDBRANCH   3  22
TORSDOF 7
ENDMDL
MODEL 2
REMARK VINA RESULT:      -6.0      2.475      5.437
REMARK  7 active torsions:
REMARK  status: ('A' for Active; 'I' for Inactive)
REMARK    1  A    between atoms: C_2  and  C_3 
REMARK    2  A    between atoms: C_3  and  O_6 
REMARK    3  A    between atoms: C_3  and  C_4 
REMARK    4  A    between atoms: C_7  and  O_6 
REMARK    5  A    between atoms: C_9  and  C_10 
REMARK    6  A    between atoms: N_15  and  C_14 
REMARK    7  A    between atoms: N_20  and  C_19 
REMARK       I    between atoms: C_22  and  N_20 
ROOT
ATOM      1  C   LIG d   1      -6.453  75.995 115.033  0.00  0.00     0.161 C 
ATOM      2  C   LIG d   1      -7.430  75.031 115.334  0.00  0.00     0.016 C 
ATOM      3  C   LIG d   1      -7.125  73.741 115.827  0.00  0.00     0.038 C 
ATOM      4  C   LIG d   1      -5.821  73.379 116.197  0.00  0.00     0.028 C 
ATOM      5  C   LIG d   1      -4.741  74.141 115.437  0.00  0.00    -0.047 C 
ATOM      6  C   LIG d   1      -5.034  75.656 115.535  0.00  0.00     0.091 C 
ENDROOT
BRANCH   1   7
ATOM      7  O   LIG d   1      -6.867  77.282 115.531  0.00  0.00    -0.368 OA
BRANCH   7   8
ATOM      8  C   LIG d   1      -6.783  77.468 116.965  0.00  0.00     0.119 C 
BRANCH   8   9
ATOM      9  C   LIG d   1      -8.171  77.920 117.456  0.00  0.00     0.028 C 
ATOM     10  C   LIG d   1      -8.272  79.448 117.604  0.00  0.00     0.006 C 
ENDBRANCH   8   9
BRANCH   8  11
ATOM     11  C   LIG d   1      -5.832  78.614 117.324  0.00  0.00     0.028 C 
ATOM     12  C   LIG d   1      -4.857  78.248 118.454  0.00  0.00     0.006 C 
ENDBRANCH   8  11
ENDBRANCH   7   8
ENDBRANCH   1   7
BRANCH   6  13
ATOM     13  N   LIG d   1      -4.072  76.471 114.748  0.00  0.00    -0.311 N 
ATOM     14  C   LIG d   1      -2.933  76.947 115.249  0.00  0.00     0.210 C 
ATOM     15  C   LIG d   1      -2.096  77.780 114.273  0.00  0.00     0.109 C 
ATOM     16  O   LIG d   1      -2.522  76.732 116.399  0.00  0.00    -0.276 OA
ATOM     17  H   LIG d   1      -4.312  76.667 113.796  0.00  0.00     0.149 HD
ENDBRANCH   6  13
BRANCH   5  18
ATOM     18  N   LIG d   1      -3.438  73.766 116.018  0.00  0.00     0.381 N 
ATOM     19  H   LIG d   1      -2.874  74.583 116.141  0.00  0.00    -0.090 HD
ATOM     20  H   LIG d   1      -2.965  73.148 115.382  0.00  0.00    -0.090 HD
ATOM     21  H   LIG d   1      -3.574  73.311 116.894  0.00  0.00    -0.090 HD
ENDBRANCH   5  18
BRANCH   3  22
ATOM     22  C   LIG d   1      -8.125  72.785 115.916  0.00  0.00     0.382 C 
ATOM     23  O   LIG d   1      -9.329  73.137 115.928  0.00  0.00    -0.241 OA
ATOM     24  O   LIG d   1      -7.838  71.579 116.029  0.00  0.00    -0.241 OA
ENDBRANCH   3  22
TORSDOF 7
ENDMDL
MODEL 3
REMARK VINA RESULT:      -5.7      1.783      2.285
REMARK  7 active torsions:
REMARK  status: ('A' for Active; 'I' for Inactive)
REMARK    1  A    between atoms: C_2  and  C_3 
REMARK    2  A    between atoms: C_3  and  O_6 
REMARK    3  A    between atoms: C_3  and  C_4 
REMARK    4  A    between atoms: C_7  and  O_6 
REMARK    5  A    between atoms: C_9  and  C_10 
REMARK    6  A    between atoms: N_15  and  C_14 
REMARK    7  A    between atoms: N_20  and  C_19 
REMARK       I    between atoms: C_22  and  N_20 
ROOT
ATOM      1  C   LIG d   1      -6.157  77.170 116.913  0.00  0.00     0.161 C 
ATOM      2  C   LIG d   1      -6.873  78.301 117.339  0.00  0.00     0.016 C 
ATOM      3  C   LIG d   1      -6.285  79.575 117.513  0.00  0.00     0.038 C 
ATOM      4  C   LIG d   1      -4.963  79.841 117.126  0.00  0.00     0.028 C 
ATOM      5  C   LIG d   1      -4.062  78.612 117.166  0.00  0.00    -0.047 C 
ATOM      6  C   LIG d   1      -4.739  77.466 116.380  0.00  0.00     0.091 C 
ENDROOT
BRANCH   1   7
ATOM      7  O   LIG d   1      -6.922  76.449 115.928  0.00  0.00    -0.368 OA
BRANCH   7   8
ATOM      8  C   LIG d   1      -7.543  75.220 116.379  0.00  0.00     0.119 C 
BRANCH   8   9
ATOM      9  C   LIG d   1      -6.895  74.060 115.598  0.00  0.00     0.028 C 
ATOM     10  C   LIG d   1      -6.131  73.090 116.515  0.00  0.00     0.006 C 
ENDBRANCH   8   9
BRANCH   8  11
ATOM     11  C   LIG d   1      -9.029  75.178 116.008  0.00  0.00     0.028 C 
ATOM     12  C   LIG d   1      -9.552  73.747 115.808  0.00  0.00     0.006 C 
ENDBRANCH   8  11
ENDBRANCH   7   8
ENDBRANCH   1   7
BRANCH   6  13
ATOM     13  N   LIG d   1      -3.963  76.200 116.441  0.00  0.00    -0.311 N 
ATOM     14  C   LIG d   1      -3.517  75.561 115.360  0.00  0.00     0.210 C 
ATOM     15  C   LIG d   1      -2.756  74.263 115.645  0.00  0.00     0.109 C 
ATOM     16  O   LIG d   1      -3.653  75.963 114.195  0.00  0.00    -0.276 OA
ATOM     17  H   LIG d   1      -3.780  75.820 117.349  0.00  0.00     0.149 HD
ENDBRANCH   6  13
BRANCH   5  18
ATOM     18  N   LIG d   1      -2.753  79.000 116.609  0.00  0.00     0.381 N 
ATOM     19  H   LIG d   1      -2.709  79.995 116.509  0.00  0.00    -0.090 HD
ATOM     20  H   LIG d   1      -2.652  78.588 115.698  0.00  0.00    -0.090 HD
ATOM     21  H   LIG d   1      -2.020  78.687 117.207  0.00  0.00    -0.090 HD
ENDBRANCH   5  18
BRANCH   3  22
ATOM     22  C   LIG d   1      -7.011  80.590 118.118  0.00  0.00     0.382 C 
ATOM     23  O   LIG d   1      -7.908  81.188 117.476  0.00  0.00    -0.241 OA
ATOM     24  O   LIG d   1      -6.750  80.946 119.282  0.00  0.00    -0.241 OA
ENDBRANCH   3  22
TORSDOF 7
ENDMDL
MODEL 4
REMARK VINA RESULT:      -5.6      2.916      5.346
REMARK  7 active torsions:
REMARK  status: ('A' for Active; 'I' for Inactive)
REMARK    1  A    between atoms: C_2  and  C_3 
REMARK    2  A    between atoms: C_3  and  O_6 
REMARK    3  A    between atoms: C_3  and  C_4 
REMARK    4  A    between atoms: C_7  and  O_6 
REMARK    5  A    between atoms: C_9  and  C_10 
REMARK    6  A    between atoms: N_15  and  C_14 
REMARK    7  A    between atoms: N_20  and  C_19 
REMARK       I    between atoms: C_22  and  N_20 
ROOT
ATOM      1  C   LIG d   1      -4.880  74.978 116.563  0.00  0.00     0.161 C 
ATOM      2  C   LIG d   1      -5.694  73.904 116.168  0.00  0.00     0.016 C 
ATOM      3  C   LIG d   1      -7.105  73.977 116.107  0.00  0.00     0.038 C 
ATOM      4  C   LIG d   1      -7.793  75.185 116.295  0.00  0.00     0.028 C 
ATOM      5  C   LIG d   1      -7.051  76.172 117.189  0.00  0.00    -0.047 C 
ATOM      6  C   LIG d   1      -5.606  76.336 116.664  0.00  0.00     0.091 C 
ENDROOT
BRANCH   1   7
ATOM      7  O   LIG d   1      -3.745  75.081 115.682  0.00  0.00    -0.368 OA
BRANCH   7   8
ATOM      8  C   LIG d   1      -2.491  75.465 116.299  0.00  0.00     0.119 C 
BRANCH   8   9
ATOM      9  C   LIG d   1      -1.733  76.353 115.293  0.00  0.00     0.028 C 
ATOM     10  C   LIG d   1      -2.677  77.243 114.468  0.00  0.00     0.006 C 
ENDBRANCH   8   9
BRANCH   8  11
ATOM     11  C   LIG d   1      -1.588  74.250 116.528  0.00  0.00     0.028 C 
ATOM     12  C   LIG d   1      -1.414  73.390 115.267  0.00  0.00     0.006 C 
ENDBRANCH   8  11
ENDBRANCH   7   8
ENDBRANCH   1   7
BRANCH   6  13
ATOM     13  N   LIG d   1      -4.785  77.221 117.531  0.00  0.00    -0.311 N 
ATOM     14  C   LIG d   1      -4.648  78.530 117.322  0.00  0.00     0.210 C 
ATOM     15  C   LIG d   1      -3.741  79.253 118.323  0.00  0.00     0.109 C 
ATOM     16  O   LIG d   1      -5.217  79.166 116.422  0.00  0.00    -0.276 OA
ATOM     17  H   LIG d   1      -4.313  76.793 118.303  0.00  0.00     0.149 HD
ENDBRANCH   6  13
BRANCH   5  18
ATOM     18  N   LIG d   1      -7.813  77.435 117.187  0.00  0.00     0.381 N 
ATOM     19  H   LIG d   1      -8.794  77.239 117.176  0.00  0.00    -0.090 HD
ATOM     20  H   LIG d   1      -7.586  77.951 116.355  0.00  0.00    -0.090 HD
ATOM     21  H   LIG d   1      -7.584  77.973 117.993  0.00  0.00    -0.090 HD
ENDBRANCH   5  18
BRANCH   3  22
ATOM     22  C   LIG d   1      -7.844  72.823 115.896  0.00  0.00     0.382 C 
ATOM     23  O   LIG d   1      -7.260  71.732 115.693  0.00  0.00    -0.241 OA
ATOM     24  O   LIG d   1      -9.089  72.868 115.861  0.00  0.00    -0.241 OA
ENDBRANCH   3  22
TORSDOF 7
ENDMDL
MODEL 5
REMARK VINA RESULT:      -5.6      2.283      5.303
REMARK  7 active torsions:
REMARK  status: ('A' for Active; 'I' for Inactive)
REMARK    1  A    between atoms: C_2  and  C_3 
REMARK    2  A    between atoms: C_3  and  O_6 
REMARK    3  A    between atoms: C_3  and  C_4 
REMARK    4  A    between atoms: C_7  and  O_6 
REMARK    5  A    between atoms: C_9  and  C_10 
REMARK    6  A    between atoms: N_15  and  C_14 
REMARK    7  A    between atoms: N_20  and  C_19 
REMARK       I    between atoms: C_22  and  N_20 
ROOT
ATOM      1  C   LIG d   1      -6.341  76.347 116.496  0.00  0.00     0.161 C 
ATOM      2  C   LIG d   1      -7.370  75.392 116.450  0.00  0.00     0.016 C 
ATOM      3  C   LIG d   1      -7.144  74.013 116.231  0.00  0.00     0.038 C 
ATOM      4  C   LIG d   1      -5.850  73.471 116.194  0.00  0.00     0.028 C 
ATOM      5  C   LIG d   1      -4.790  74.465 115.732  0.00  0.00    -0.047 C 
ATOM      6  C   LIG d   1      -4.916  75.759 116.568  0.00  0.00     0.091 C 
ENDROOT
BRANCH   1   7
ATOM      7  O   LIG d   1      -6.565  77.254 117.593  0.00  0.00    -0.368 OA
BRANCH   7   8
ATOM      8  C   LIG d   1      -6.899  78.618 117.234  0.00  0.00     0.119 C 
BRANCH   8   9
ATOM      9  C   LIG d   1      -5.971  79.548 118.039  0.00  0.00     0.028 C 
ATOM     10  C   LIG d   1      -4.864  80.168 117.170  0.00  0.00     0.006 C 
ENDBRANCH   8   9
BRANCH   8  11
ATOM     11  C   LIG d   1      -8.320  78.978 117.678  0.00  0.00     0.028 C 
ATOM     12  C   LIG d   1      -8.607  80.485 117.589  0.00  0.00     0.006 C 
ENDBRANCH   8  11
ENDBRANCH   7   8
ENDBRANCH   1   7
BRANCH   6  13
ATOM     13  N   LIG d   1      -3.970  76.815 116.124  0.00  0.00    -0.311 N 
ATOM     14  C   LIG d   1      -3.662  77.033 114.846  0.00  0.00     0.210 C 
ATOM     15  C   LIG d   1      -2.651  78.159 114.608  0.00  0.00     0.109 C 
ATOM     16  O   LIG d   1      -4.155  76.423 113.886  0.00  0.00    -0.276 OA
ATOM     17  H   LIG d   1      -3.548  77.378 116.836  0.00  0.00     0.149 HD
ENDBRANCH   6  13
BRANCH   5  18
ATOM     18  N   LIG d   1      -3.475  73.811 115.872  0.00  0.00     0.381 N 
ATOM     19  H   LIG d   1      -2.956  74.249 116.606  0.00  0.00    -0.090 HD
ATOM     20  H   LIG d   1      -2.964  73.923 115.014  0.00  0.00    -0.090 HD
ATOM     21  H   LIG d   1      -3.596  72.843 116.072  0.00  0.00    -0.090 HD
ENDBRANCH   5  18
BRANCH   3  22
ATOM     22  C   LIG d   1      -8.219  73.167 116.007  0.00  0.00     0.382 C 
ATOM     23  O   LIG d   1      -8.049  71.924 116.004  0.00  0.00    -0.241 OA
ATOM     24  O   LIG d   1      -9.349  73.632 115.764  0.00  0.00    -0.241 OA
ENDBRANCH   3  22
TORSDOF 7
ENDMDL
MODEL 6
REMARK VINA RESULT:      -5.5     12.049     14.020
REMARK  7 active torsions:
REMARK  status: ('A' for Active; 'I' for Inactive)
REMARK    1  A    between atoms: C_2  and  C_3 
REMARK    2  A    between atoms: C_3  and  O_6 
REMARK    3  A    between atoms: C_3  and  C_4 
REMARK    4  A    between atoms: C_7  and  O_6 
REMARK    5  A    between atoms: C_9  and  C_10 
REMARK    6  A    between atoms: N_15  and  C_14 
REMARK    7  A    between atoms: N_20  and  C_19 
REMARK       I    between atoms: C_22  and  N_20 
ROOT
ATOM      1  C   LIG d   1      -4.228  90.418 117.400  0.00  0.00     0.161 C 
ATOM      2  C   LIG d   1      -5.122  89.769 116.533  0.00  0.00     0.016 C 
ATOM      3  C   LIG d   1      -6.371  90.312 116.152  0.00  0.00     0.038 C 
ATOM      4  C   LIG d   1      -6.746  91.619 116.496  0.00  0.00     0.028 C 
ATOM      5  C   LIG d   1      -6.098  92.116 117.784  0.00  0.00    -0.047 C 
ATOM      6  C   LIG d   1      -4.571  91.893 117.697  0.00  0.00     0.091 C 
ENDROOT
BRANCH   1   7
ATOM      7  O   LIG d   1      -2.885  90.309 116.888  0.00  0.00    -0.368 OA
BRANCH   7   8
ATOM      8  C   LIG d   1      -1.939  89.603 117.728  0.00  0.00     0.119 C 
BRANCH   8   9
ATOM      9  C   LIG d   1      -0.526  89.913 117.195  0.00  0.00     0.028 C 
ATOM     10  C   LIG d   1       0.201  90.972 118.039  0.00  0.00     0.006 C 
ENDBRANCH   8   9
BRANCH   8  11
ATOM     11  C   LIG d   1      -2.099  88.086 117.594  0.00  0.00     0.028 C 
ATOM     12  C   LIG d   1      -0.760  87.361 117.389  0.00  0.00     0.006 C 
ENDBRANCH   8  11
ENDBRANCH   7   8
ENDBRANCH   1   7
BRANCH   6  13
ATOM     13  N   LIG d   1      -3.870  92.275 118.950  0.00  0.00    -0.311 N 
ATOM     14  C   LIG d   1      -2.784  93.045 118.977  0.00  0.00     0.210 C 
ATOM     15  C   LIG d   1      -2.206  93.300 120.373  0.00  0.00     0.109 C 
ATOM     16  O   LIG d   1      -2.263  93.568 117.981  0.00  0.00    -0.276 OA
ATOM     17  H   LIG d   1      -4.244  91.919 119.808  0.00  0.00     0.149 HD
ENDBRANCH   6  13
BRANCH   5  18
ATOM     18  N   LIG d   1      -6.467  93.535 117.950  0.00  0.00     0.381 N 
ATOM     19  H   LIG d   1      -7.398  93.604 118.309  0.00  0.00    -0.090 HD
ATOM     20  H   LIG d   1      -6.442  93.984 117.051  0.00  0.00    -0.090 HD
ATOM     21  H   LIG d   1      -5.829  93.983 118.571  0.00  0.00    -0.090 HD
ENDBRANCH   5  18
BRANCH   3  22
ATOM     22  C   LIG d   1      -7.276  89.530 115.452  0.00  0.00     0.382 C 
ATOM     23  O   LIG d   1      -8.194  88.933 116.064  0.00  0.00    -0.241 OA
ATOM     24  O   LIG d   1      -7.160  89.377 114.221  0.00  0.00    -0.241 OA
ENDBRANCH   3  22
TORSDOF 7
ENDMDL
MODEL 7
REMARK VINA RESULT:      -5.3      1.653      2.416
REMARK  7 active torsions:
REMARK  status: ('A' for Active; 'I' for Inactive)
REMARK    1  A    between atoms: C_2  and  C_3 
REMARK    2  A    between atoms: C_3  and  O_6 
REMARK    3  A    between atoms: C_3  and  C_4 
REMARK    4  A    between atoms: C_7  and  O_6 
REMARK    5  A    between atoms: C_9  and  C_10 
REMARK    6  A    between atoms: N_15  and  C_14 
REMARK    7  A    between atoms: N_20  and  C_19 
REMARK       I    between atoms: C_22  and  N_20 
ROOT
ATOM      1  C   LIG d   1      -6.035  76.956 116.456  0.00  0.00     0.161 C 
ATOM      2  C   LIG d   1      -6.913  77.991 116.818  0.00  0.00     0.016 C 
ATOM      3  C   LIG d   1      -6.486  79.201 117.413  0.00  0.00     0.038 C 
ATOM      4  C   LIG d   1      -5.127  79.522 117.547  0.00  0.00     0.028 C 
ATOM      5  C   LIG d   1      -4.224  78.299 117.659  0.00  0.00    -0.047 C 
ATOM      6  C   LIG d   1      -4.539  77.334 116.493  0.00  0.00     0.091 C 
ENDROOT
BRANCH   1   7
ATOM      7  O   LIG d   1      -6.390  76.447 115.155  0.00  0.00    -0.368 OA
BRANCH   7   8
ATOM      8  C   LIG d   1      -7.060  75.162 115.135  0.00  0.00     0.119 C 
BRANCH   8   9
ATOM      9  C   LIG d   1      -7.985  75.103 116.366  0.00  0.00     0.028 C 
ATOM     10  C   LIG d   1      -9.445  74.801 115.988  0.00  0.00     0.006 C 
ENDBRANCH   8   9
BRANCH   8  11
ATOM     11  C   LIG d   1      -6.065  74.012 115.320  0.00  0.00     0.028 C 
ATOM     12  C   LIG d   1      -6.331  73.193 116.593  0.00  0.00     0.006 C 
ENDBRANCH   8  11
ENDBRANCH   7   8
ENDBRANCH   1   7
BRANCH   6  13
ATOM     13  N   LIG d   1      -3.758  76.072 116.574  0.00  0.00    -0.311 N 
ATOM     14  C   LIG d   1      -2.959  75.640 115.599  0.00  0.00     0.210 C 
ATOM     15  C   LIG d   1      -2.262  74.305 115.879  0.00  0.00     0.109 C 
ATOM     16  O   LIG d   1      -2.737  76.252 114.544  0.00  0.00    -0.276 OA
ATOM     17  H   LIG d   1      -3.855  75.529 117.409  0.00  0.00     0.149 HD
ENDBRANCH   6  13
BRANCH   5  18
ATOM     18  N   LIG d   1      -2.828  78.774 117.655  0.00  0.00     0.381 N 
ATOM     19  H   LIG d   1      -2.229  78.064 117.283  0.00  0.00    -0.090 HD
ATOM     20  H   LIG d   1      -2.545  78.961 118.601  0.00  0.00    -0.090 HD
ATOM     21  H   LIG d   1      -2.751  79.603 117.107  0.00  0.00    -0.090 HD
ENDBRANCH   5  18
BRANCH   3  22
ATOM     22  C   LIG d   1      -7.426  80.087 117.916  0.00  0.00     0.382 C 
ATOM     23  O   LIG d   1      -7.074  80.983 118.722  0.00  0.00    -0.241 OA
ATOM     24  O   LIG d   1      -8.628  79.976 117.610  0.00  0.00    -0.241 OA
ENDBRANCH   3  22
TORSDOF 7
ENDMDL
MODEL 8
REMARK VINA RESULT:      -5.1      2.199      5.544
REMARK  7 active torsions:
REMARK  status: ('A' for Active; 'I' for Inactive)
REMARK    1  A    between atoms: C_2  and  C_3 
REMARK    2  A    between atoms: C_3  and  O_6 
REMARK    3  A    between atoms: C_3  and  C_4 
REMARK    4  A    between atoms: C_7  and  O_6 
REMARK    5  A    between atoms: C_9  and  C_10 
REMARK    6  A    between atoms: N_15  and  C_14 
REMARK    7  A    between atoms: N_20  and  C_19 
REMARK       I    between atoms: C_22  and  N_20 
ROOT
ATOM      1  C   LIG d   1      -4.705  76.779 115.499  0.00  0.00     0.161 C 
ATOM      2  C   LIG d   1      -3.820  75.722 115.232  0.00  0.00     0.016 C 
ATOM      3  C   LIG d   1      -2.761  75.356 116.094  0.00  0.00     0.038 C 
ATOM      4  C   LIG d   1      -2.608  75.930 117.365  0.00  0.00     0.028 C 
ATOM      5  C   LIG d   1      -3.170  77.344 117.462  0.00  0.00    -0.047 C 
ATOM      6  C   LIG d   1      -4.622  77.345 116.933  0.00  0.00     0.091 C 
ENDROOT
BRANCH   1   7
ATOM      7  O   LIG d   1      -6.055  76.374 115.198  0.00  0.00    -0.368 OA
BRANCH   7   8
ATOM      8  C   LIG d   1      -6.712  75.552 116.194  0.00  0.00     0.119 C 
BRANCH   8   9
ATOM      9  C   LIG d   1      -6.927  74.158 115.574  0.00  0.00     0.028 C 
ATOM     10  C   LIG d   1      -6.176  73.054 116.337  0.00  0.00     0.006 C 
ENDBRANCH   8   9
BRANCH   8  11
ATOM     11  C   LIG d   1      -8.115  76.076 116.512  0.00  0.00     0.028 C 
ATOM     12  C   LIG d   1      -9.222  75.073 116.148  0.00  0.00     0.006 C 
ENDBRANCH   8  11
ENDBRANCH   7   8
ENDBRANCH   1   7
BRANCH   6  13
ATOM     13  N   LIG d   1      -5.218  78.706 116.914  0.00  0.00    -0.311 N 
ATOM     14  C   LIG d   1      -6.013  79.172 117.876  0.00  0.00     0.210 C 
ATOM     15  C   LIG d   1      -6.536  80.594 117.651  0.00  0.00     0.109 C 
ATOM     16  O   LIG d   1      -6.309  78.554 118.910  0.00  0.00    -0.276 OA
ATOM     17  H   LIG d   1      -5.005  79.287 116.127  0.00  0.00     0.149 HD
ENDBRANCH   6  13
BRANCH   5  18
ATOM     18  N   LIG d   1      -3.069  77.768 118.872  0.00  0.00     0.381 N 
ATOM     19  H   LIG d   1      -3.108  76.967 119.470  0.00  0.00    -0.090 HD
ATOM     20  H   LIG d   1      -3.849  78.363 119.089  0.00  0.00    -0.090 HD
ATOM     21  H   LIG d   1      -2.215  78.261 119.019  0.00  0.00    -0.090 HD
ENDBRANCH   5  18
BRANCH   3  22
ATOM     22  C   LIG d   1      -1.818  74.432 115.671  0.00  0.00     0.382 C 
ATOM     23  O   LIG d   1      -0.664  74.444 116.164  0.00  0.00    -0.241 OA
ATOM     24  O   LIG d   1      -2.092  73.617 114.770  0.00  0.00    -0.241 OA
ENDBRANCH   3  22
TORSDOF 7
ENDMDL
MODEL 9
REMARK VINA RESULT:      -4.9      2.659      4.707
REMARK  7 active torsions:
REMARK  status: ('A' for Active; 'I' for Inactive)
REMARK    1  A    between atoms: C_2  and  C_3 
REMARK    2  A    between atoms: C_3  and  O_6 
REMARK    3  A    between atoms: C_3  and  C_4 
REMARK    4  A    between atoms: C_7  and  O_6 
REMARK    5  A    between atoms: C_9  and  C_10 
REMARK    6  A    between atoms: N_15  and  C_14 
REMARK    7  A    between atoms: N_20  and  C_19 
REMARK       I    between atoms: C_22  and  N_20 
ROOT
ATOM      1  C   LIG d   1      -5.170  76.618 116.205  0.00  0.00     0.161 C 
ATOM      2  C   LIG d   1      -6.096  75.633 115.823  0.00  0.00     0.016 C 
ATOM      3  C   LIG d   1      -7.454  75.648 116.214  0.00  0.00     0.038 C 
ATOM      4  C   LIG d   1      -8.018  76.737 116.895  0.00  0.00     0.028 C 
ATOM      5  C   LIG d   1      -7.010  77.513 117.736  0.00  0.00    -0.047 C 
ATOM      6  C   LIG d   1      -5.791  77.872 116.855  0.00  0.00     0.091 C 
ENDROOT
BRANCH   1   7
ATOM      7  O   LIG d   1      -4.357  76.989 115.075  0.00  0.00    -0.368 OA
BRANCH   7   8
ATOM      8  C   LIG d   1      -3.024  76.424 115.034  0.00  0.00     0.119 C 
BRANCH   8   9
ATOM      9  C   LIG d   1      -2.685  75.936 116.456  0.00  0.00     0.028 C 
ATOM     10  C   LIG d   1      -2.019  74.549 116.458  0.00  0.00     0.006 C 
ENDBRANCH   8   9
BRANCH   8  11
ATOM     11  C   LIG d   1      -1.975  77.491 114.711  0.00  0.00     0.028 C 
ATOM     12  C   LIG d   1      -2.365  78.365 113.509  0.00  0.00     0.006 C 
ENDBRANCH   8  11
ENDBRANCH   7   8
ENDBRANCH   1   7
BRANCH   6  13
ATOM     13  N   LIG d   1      -4.720  78.559 117.622  0.00  0.00    -0.311 N 
ATOM     14  C   LIG d   1      -4.045  79.609 117.158  0.00  0.00     0.210 C 
ATOM     15  C   LIG d   1      -2.968  80.154 118.102  0.00  0.00     0.109 C 
ATOM     16  O   LIG d   1      -4.257  80.162 116.068  0.00  0.00    -0.276 OA
ATOM     17  H   LIG d   1      -4.503  78.195 118.529  0.00  0.00     0.149 HD
ENDBRANCH   6  13
BRANCH   5  18
ATOM     18  N   LIG d   1      -7.700  78.699 118.278  0.00  0.00     0.381 N 
ATOM     19  H   LIG d   1      -8.490  78.412 118.821  0.00  0.00    -0.090 HD
ATOM     20  H   LIG d   1      -8.031  79.260 117.513  0.00  0.00    -0.090 HD
ATOM     21  H   LIG d   1      -7.074  79.229 118.843  0.00  0.00    -0.090 HD
ENDBRANCH   5  18
BRANCH   3  22
ATOM     22  C   LIG d   1      -8.255  74.545 115.959  0.00  0.00     0.382 C 
ATOM     23  O   LIG d   1      -7.731  73.424 115.751  0.00  0.00    -0.241 OA
ATOM     24  O   LIG d   1      -9.493  74.666 115.890  0.00  0.00    -0.241 OA
ENDBRANCH   3  22
TORSDOF 7
ENDMDL
