MODEL 1
REMARK VINA RESULT:      -5.7      0.000      0.000
REMARK  7 active torsions:
REMARK  status: ('A' for Active; 'I' for Inactive)
REMARK    1  A    between atoms: C_2  and  C_3 
REMARK    2  A    between atoms: C_3  and  O_6 
REMARK    3  A    between atoms: C_3  and  C_4 
REMARK    4  A    between atoms: C_7  and  O_6 
REMARK    5  A    between atoms: C_9  and  C_10 
REMARK    6  A    between atoms: N_15  and  C_14 
REMARK    7  A    between atoms: N_20  and  C_19 
REMARK       I    between atoms: C_22  and  N_20 
ROOT
ATOM      1  C   LIG d   1      -2.838  77.489 116.638  0.00  0.00     0.161 C 
ATOM      2  C   LIG d   1      -3.043  78.495 115.679  0.00  0.00     0.016 C 
ATOM      3  C   LIG d   1      -2.182  78.709 114.579  0.00  0.00     0.038 C 
ATOM      4  C   LIG d   1      -1.132  77.828 114.277  0.00  0.00     0.028 C 
ATOM      5  C   LIG d   1      -0.584  77.097 115.498  0.00  0.00    -0.047 C 
ATOM      6  C   LIG d   1      -1.761  76.449 116.264  0.00  0.00     0.091 C 
ENDROOT
BRANCH   1   7
ATOM      7  O   LIG d   1      -4.086  76.833 116.933  0.00  0.00    -0.368 OA
BRANCH   7   8
ATOM      8  C   LIG d   1      -4.998  76.667 115.819  0.00  0.00     0.119 C 
BRANCH   8   9
ATOM      9  C   LIG d   1      -6.425  76.906 116.350  0.00  0.00     0.028 C 
ATOM     10  C   LIG d   1      -6.445  77.811 117.593  0.00  0.00     0.006 C 
ENDBRANCH   8   9
BRANCH   8  11
ATOM     11  C   LIG d   1      -4.993  75.224 115.305  0.00  0.00     0.028 C 
ATOM     12  C   LIG d   1      -6.103  74.365 115.931  0.00  0.00     0.006 C 
ENDBRANCH   8  11
ENDBRANCH   7   8
ENDBRANCH   1   7
BRANCH   6  13
ATOM     13  N   LIG d   1      -1.322  75.785 117.519  0.00  0.00    -0.311 N 
ATOM     14  C   LIG d   1      -0.832  74.547 117.560  0.00  0.00     0.210 C 
ATOM     15  C   LIG d   1      -0.460  74.045 118.959  0.00  0.00     0.109 C 
ATOM     16  O   LIG d   1      -0.641  73.828 116.568  0.00  0.00    -0.276 OA
ATOM     17  H   LIG d   1      -1.413  76.307 118.368  0.00  0.00     0.149 HD
ENDBRANCH   6  13
BRANCH   5  18
ATOM     18  N   LIG d   1       0.407  76.114 115.022  0.00  0.00     0.381 N 
ATOM     19  H   LIG d   1      -0.032  75.463 114.403  0.00  0.00    -0.090 HD
ATOM     20  H   LIG d   1       0.766  75.606 115.811  0.00  0.00    -0.090 HD
ATOM     21  H   LIG d   1       1.151  76.581 114.552  0.00  0.00    -0.090 HD
ENDBRANCH   5  18
BRANCH   3  22
ATOM     22  C   LIG d   1      -2.343  79.837 113.789  0.00  0.00     0.382 C 
ATOM     23  O   LIG d   1      -1.500  80.765 113.843  0.00  0.00    -0.241 OA
ATOM     24  O   LIG d   1      -3.343  79.958 113.056  0.00  0.00    -0.241 OA
ENDBRANCH   3  22
TORSDOF 7
ENDMDL
MODEL 2
REMARK VINA RESULT:      -5.4      2.703      5.929
REMARK  7 active torsions:
REMARK  status: ('A' for Active; 'I' for Inactive)
REMARK    1  A    between atoms: C_2  and  C_3 
REMARK    2  A    between atoms: C_3  and  O_6 
REMARK    3  A    between atoms: C_3  and  C_4 
REMARK    4  A    between atoms: C_7  and  O_6 
REMARK    5  A    between atoms: C_9  and  C_10 
REMARK    6  A    between atoms: N_15  and  C_14 
REMARK    7  A    between atoms: N_20  and  C_19 
REMARK       I    between atoms: C_22  and  N_20 
ROOT
ATOM      1  C   LIG d   1      -3.654  75.612 115.917  0.00  0.00     0.161 C 
ATOM      2  C   LIG d   1      -4.507  74.521 115.679  0.00  0.00     0.016 C 
ATOM      3  C   LIG d   1      -5.905  74.566 115.888  0.00  0.00     0.038 C 
ATOM      4  C   LIG d   1      -6.569  75.759 116.207  0.00  0.00     0.028 C 
ATOM      5  C   LIG d   1      -5.690  76.762 116.948  0.00  0.00    -0.047 C 
ATOM      6  C   LIG d   1      -4.375  76.955 116.160  0.00  0.00     0.091 C 
ENDROOT
BRANCH   1   7
ATOM      7  O   LIG d   1      -2.709  75.739 114.837  0.00  0.00    -0.368 OA
BRANCH   7   8
ATOM      8  C   LIG d   1      -1.479  74.986 114.974  0.00  0.00     0.119 C 
BRANCH   8   9
ATOM      9  C   LIG d   1      -0.789  75.460 116.269  0.00  0.00     0.028 C 
ATOM     10  C   LIG d   1      -0.416  74.291 117.196  0.00  0.00     0.006 C 
ENDBRANCH   8   9
BRANCH   8  11
ATOM     11  C   LIG d   1      -0.495  75.314 113.847  0.00  0.00     0.028 C 
ATOM     12  C   LIG d   1       0.268  74.079 113.344  0.00  0.00     0.006 C 
ENDBRANCH   8  11
ENDBRANCH   7   8
ENDBRANCH   1   7
BRANCH   6  13
ATOM     13  N   LIG d   1      -3.422  77.857 116.858  0.00  0.00    -0.311 N 
ATOM     14  C   LIG d   1      -2.938  78.973 116.317  0.00  0.00     0.210 C 
ATOM     15  C   LIG d   1      -1.954  79.746 117.201  0.00  0.00     0.109 C 
ATOM     16  O   LIG d   1      -3.255  79.413 115.202  0.00  0.00    -0.276 OA
ATOM     17  H   LIG d   1      -3.136  77.592 117.781  0.00  0.00     0.149 HD
ENDBRANCH   6  13
BRANCH   5  18
ATOM     18  N   LIG d   1      -6.464  78.009 117.096  0.00  0.00     0.381 N 
ATOM     19  H   LIG d   1      -7.283  77.836 117.644  0.00  0.00    -0.090 HD
ATOM     20  H   LIG d   1      -6.754  78.321 116.186  0.00  0.00    -0.090 HD
ATOM     21  H   LIG d   1      -5.905  78.708 117.532  0.00  0.00    -0.090 HD
ENDBRANCH   5  18
BRANCH   3  22
ATOM     22  C   LIG d   1      -6.648  73.397 115.816  0.00  0.00     0.382 C 
ATOM     23  O   LIG d   1      -6.087  72.315 115.515  0.00  0.00    -0.241 OA
ATOM     24  O   LIG d   1      -7.879  73.419 116.004  0.00  0.00    -0.241 OA
ENDBRANCH   3  22
TORSDOF 7
ENDMDL
MODEL 3
REMARK VINA RESULT:      -5.3      2.845      4.691
REMARK  7 active torsions:
REMARK  status: ('A' for Active; 'I' for Inactive)
REMARK    1  A    between atoms: C_2  and  C_3 
REMARK    2  A    between atoms: C_3  and  O_6 
REMARK    3  A    between atoms: C_3  and  C_4 
REMARK    4  A    between atoms: C_7  and  O_6 
REMARK    5  A    between atoms: C_9  and  C_10 
REMARK    6  A    between atoms: N_15  and  C_14 
REMARK    7  A    between atoms: N_20  and  C_19 
REMARK       I    between atoms: C_22  and  N_20 
ROOT
ATOM      1  C   LIG d   1      -5.670  77.669 117.296  0.00  0.00     0.161 C 
ATOM      2  C   LIG d   1      -6.812  78.470 117.461  0.00  0.00     0.016 C 
ATOM      3  C   LIG d   1      -6.763  79.818 117.883  0.00  0.00     0.038 C 
ATOM      4  C   LIG d   1      -5.549  80.507 118.023  0.00  0.00     0.028 C 
ATOM      5  C   LIG d   1      -4.371  79.597 118.356  0.00  0.00    -0.047 C 
ATOM      6  C   LIG d   1      -4.331  78.435 117.337  0.00  0.00     0.091 C 
ENDROOT
BRANCH   1   7
ATOM      7  O   LIG d   1      -5.777  76.912 116.073  0.00  0.00    -0.368 OA
BRANCH   7   8
ATOM      8  C   LIG d   1      -5.456  75.502 116.167  0.00  0.00     0.119 C 
BRANCH   8   9
ATOM      9  C   LIG d   1      -4.759  75.098 114.853  0.00  0.00     0.028 C 
ATOM     10  C   LIG d   1      -4.725  76.246 113.830  0.00  0.00     0.006 C 
ENDBRANCH   8   9
BRANCH   8  11
ATOM     11  C   LIG d   1      -6.724  74.646 116.233  0.00  0.00     0.028 C 
ATOM     12  C   LIG d   1      -6.449  73.154 115.989  0.00  0.00     0.006 C 
ENDBRANCH   8  11
ENDBRANCH   7   8
ENDBRANCH   1   7
BRANCH   6  13
ATOM     13  N   LIG d   1      -3.259  77.452 117.640  0.00  0.00    -0.311 N 
ATOM     14  C   LIG d   1      -2.261  77.174 116.803  0.00  0.00     0.210 C 
ATOM     15  C   LIG d   1      -1.274  76.115 117.303  0.00  0.00     0.109 C 
ATOM     16  O   LIG d   1      -2.081  77.728 115.708  0.00  0.00    -0.276 OA
ATOM     17  H   LIG d   1      -3.310  76.979 118.521  0.00  0.00     0.149 HD
ENDBRANCH   6  13
BRANCH   5  18
ATOM     18  N   LIG d   1      -3.150  80.424 118.337  0.00  0.00     0.381 N 
ATOM     19  H   LIG d   1      -3.395  81.388 118.227  0.00  0.00    -0.090 HD
ATOM     20  H   LIG d   1      -2.584  80.151 117.553  0.00  0.00    -0.090 HD
ATOM     21  H   LIG d   1      -2.640  80.299 119.184  0.00  0.00    -0.090 HD
ENDBRANCH   5  18
BRANCH   3  22
ATOM     22  C   LIG d   1      -7.937  80.480 118.208  0.00  0.00     0.382 C 
ATOM     23  O   LIG d   1      -8.302  81.475 117.536  0.00  0.00    -0.241 OA
ATOM     24  O   LIG d   1      -8.613  80.122 119.191  0.00  0.00    -0.241 OA
ENDBRANCH   3  22
TORSDOF 7
ENDMDL
MODEL 4
REMARK VINA RESULT:      -5.2     14.130     16.631
REMARK  7 active torsions:
REMARK  status: ('A' for Active; 'I' for Inactive)
REMARK    1  A    between atoms: C_2  and  C_3 
REMARK    2  A    between atoms: C_3  and  O_6 
REMARK    3  A    between atoms: C_3  and  C_4 
REMARK    4  A    between atoms: C_7  and  O_6 
REMARK    5  A    between atoms: C_9  and  C_10 
REMARK    6  A    between atoms: N_15  and  C_14 
REMARK    7  A    between atoms: N_20  and  C_19 
REMARK       I    between atoms: C_22  and  N_20 
ROOT
ATOM      1  C   LIG d   1      -5.394  92.027 117.573  0.00  0.00     0.161 C 
ATOM      2  C   LIG d   1      -5.512  91.311 116.370  0.00  0.00     0.016 C 
ATOM      3  C   LIG d   1      -6.673  91.331 115.563  0.00  0.00     0.038 C 
ATOM      4  C   LIG d   1      -7.746  92.195 115.830  0.00  0.00     0.028 C 
ATOM      5  C   LIG d   1      -7.878  92.559 117.305  0.00  0.00    -0.047 C 
ATOM      6  C   LIG d   1      -6.511  93.061 117.823  0.00  0.00     0.091 C 
ENDROOT
BRANCH   1   7
ATOM      7  O   LIG d   1      -4.101  92.660 117.639  0.00  0.00    -0.368 OA
BRANCH   7   8
ATOM      8  C   LIG d   1      -2.982  91.794 117.950  0.00  0.00     0.119 C 
BRANCH   8   9
ATOM      9  C   LIG d   1      -3.381  90.941 119.170  0.00  0.00     0.028 C 
ATOM     10  C   LIG d   1      -2.950  89.472 119.026  0.00  0.00     0.006 C 
ENDBRANCH   8   9
BRANCH   8  11
ATOM     11  C   LIG d   1      -1.761  92.601 118.402  0.00  0.00     0.028 C 
ATOM     12  C   LIG d   1      -1.640  93.953 117.681  0.00  0.00     0.006 C 
ENDBRANCH   8  11
ENDBRANCH   7   8
ENDBRANCH   1   7
BRANCH   6  13
ATOM     13  N   LIG d   1      -6.531  93.359 119.279  0.00  0.00    -0.311 N 
ATOM     14  C   LIG d   1      -6.819  94.560 119.777  0.00  0.00     0.210 C 
ATOM     15  C   LIG d   1      -6.764  94.656 121.305  0.00  0.00     0.109 C 
ATOM     16  O   LIG d   1      -7.147  95.547 119.101  0.00  0.00    -0.276 OA
ATOM     17  H   LIG d   1      -6.308  92.607 119.901  0.00  0.00     0.149 HD
ENDBRANCH   6  13
BRANCH   5  18
ATOM     18  N   LIG d   1      -8.947  93.570 117.420  0.00  0.00     0.381 N 
ATOM     19  H   LIG d   1      -9.697  93.208 117.974  0.00  0.00    -0.090 HD
ATOM     20  H   LIG d   1      -9.302  93.773 116.502  0.00  0.00    -0.090 HD
ATOM     21  H   LIG d   1      -8.587  94.400 117.837  0.00  0.00    -0.090 HD
ENDBRANCH   5  18
BRANCH   3  22
ATOM     22  C   LIG d   1      -6.785  90.452 114.497  0.00  0.00     0.382 C 
ATOM     23  O   LIG d   1      -6.022  89.458 114.422  0.00  0.00    -0.241 OA
ATOM     24  O   LIG d   1      -7.609  90.663 113.588  0.00  0.00    -0.241 OA
ENDBRANCH   3  22
TORSDOF 7
ENDMDL
MODEL 5
REMARK VINA RESULT:      -5.2     14.871     16.856
REMARK  7 active torsions:
REMARK  status: ('A' for Active; 'I' for Inactive)
REMARK    1  A    between atoms: C_2  and  C_3 
REMARK    2  A    between atoms: C_3  and  O_6 
REMARK    3  A    between atoms: C_3  and  C_4 
REMARK    4  A    between atoms: C_7  and  O_6 
REMARK    5  A    between atoms: C_9  and  C_10 
REMARK    6  A    between atoms: N_15  and  C_14 
REMARK    7  A    between atoms: N_20  and  C_19 
REMARK       I    between atoms: C_22  and  N_20 
ROOT
ATOM      1  C   LIG d   1      -6.048  93.181 118.403  0.00  0.00     0.161 C 
ATOM      2  C   LIG d   1      -6.864  92.836 117.313  0.00  0.00     0.016 C 
ATOM      3  C   LIG d   1      -6.495  91.883 116.335  0.00  0.00     0.038 C 
ATOM      4  C   LIG d   1      -5.342  91.096 116.466  0.00  0.00     0.028 C 
ATOM      5  C   LIG d   1      -4.241  91.765 117.282  0.00  0.00    -0.047 C 
ATOM      6  C   LIG d   1      -4.836  92.252 118.623  0.00  0.00     0.091 C 
ENDROOT
BRANCH   1   7
ATOM      7  O   LIG d   1      -6.843  93.259 119.603  0.00  0.00    -0.368 OA
BRANCH   7   8
ATOM      8  C   LIG d   1      -7.087  94.591 120.120  0.00  0.00     0.119 C 
BRANCH   8   9
ATOM      9  C   LIG d   1      -8.462  95.047 119.595  0.00  0.00     0.028 C 
ATOM     10  C   LIG d   1      -8.344  96.079 118.460  0.00  0.00     0.006 C 
ENDBRANCH   8   9
BRANCH   8  11
ATOM     11  C   LIG d   1      -6.082  95.600 119.557  0.00  0.00     0.028 C 
ATOM     12  C   LIG d   1      -5.140  96.166 120.631  0.00  0.00     0.006 C 
ENDBRANCH   8  11
ENDBRANCH   7   8
ENDBRANCH   1   7
BRANCH   6  13
ATOM     13  N   LIG d   1      -3.846  92.992 119.447  0.00  0.00    -0.311 N 
ATOM     14  C   LIG d   1      -3.118  92.423 120.406  0.00  0.00     0.210 C 
ATOM     15  C   LIG d   1      -2.171  93.371 121.149  0.00  0.00     0.109 C 
ATOM     16  O   LIG d   1      -3.143  91.216 120.691  0.00  0.00    -0.276 OA
ATOM     17  H   LIG d   1      -3.738  93.971 119.262  0.00  0.00     0.149 HD
ENDBRANCH   6  13
BRANCH   5  18
ATOM     18  N   LIG d   1      -3.155  90.782 117.455  0.00  0.00     0.381 N 
ATOM     19  H   LIG d   1      -2.362  91.054 116.909  0.00  0.00    -0.090 HD
ATOM     20  H   LIG d   1      -3.471  89.886 117.127  0.00  0.00    -0.090 HD
ATOM     21  H   LIG d   1      -2.900  90.721 118.416  0.00  0.00    -0.090 HD
ENDBRANCH   5  18
BRANCH   3  22
ATOM     22  C   LIG d   1      -7.265  91.740 115.191  0.00  0.00     0.382 C 
ATOM     23  O   LIG d   1      -8.331  91.080 115.231  0.00  0.00    -0.241 OA
ATOM     24  O   LIG d   1      -6.884  92.224 114.108  0.00  0.00    -0.241 OA
ENDBRANCH   3  22
TORSDOF 7
ENDMDL
MODEL 6
REMARK VINA RESULT:      -5.0      2.334      4.434
REMARK  7 active torsions:
REMARK  status: ('A' for Active; 'I' for Inactive)
REMARK    1  A    between atoms: C_2  and  C_3 
REMARK    2  A    between atoms: C_3  and  O_6 
REMARK    3  A    between atoms: C_3  and  C_4 
REMARK    4  A    between atoms: C_7  and  O_6 
REMARK    5  A    between atoms: C_9  and  C_10 
REMARK    6  A    between atoms: N_15  and  C_14 
REMARK    7  A    between atoms: N_20  and  C_19 
REMARK       I    between atoms: C_22  and  N_20 
ROOT
ATOM      1  C   LIG d   1      -3.295  77.243 115.662  0.00  0.00     0.161 C 
ATOM      2  C   LIG d   1      -2.596  76.150 115.125  0.00  0.00     0.016 C 
ATOM      3  C   LIG d   1      -1.597  75.441 115.832  0.00  0.00     0.038 C 
ATOM      4  C   LIG d   1      -1.334  75.685 117.188  0.00  0.00     0.028 C 
ATOM      5  C   LIG d   1      -1.659  77.111 117.621  0.00  0.00    -0.047 C 
ATOM      6  C   LIG d   1      -3.100  77.453 117.178  0.00  0.00     0.091 C 
ENDROOT
BRANCH   1   7
ATOM      7  O   LIG d   1      -4.697  77.129 115.348  0.00  0.00    -0.368 OA
BRANCH   7   8
ATOM      8  C   LIG d   1      -5.457  76.197 116.155  0.00  0.00     0.119 C 
BRANCH   8   9
ATOM      9  C   LIG d   1      -5.614  74.899 115.339  0.00  0.00     0.028 C 
ATOM     10  C   LIG d   1      -6.495  73.860 116.054  0.00  0.00     0.006 C 
ENDBRANCH   8   9
BRANCH   8  11
ATOM     11  C   LIG d   1      -6.883  76.701 116.395  0.00  0.00     0.028 C 
ATOM     12  C   LIG d   1      -6.934  77.927 117.320  0.00  0.00     0.006 C 
ENDBRANCH   8  11
ENDBRANCH   7   8
ENDBRANCH   1   7
BRANCH   6  13
ATOM     13  N   LIG d   1      -3.469  78.859 117.489  0.00  0.00    -0.311 N 
ATOM     14  C   LIG d   1      -4.002  79.238 118.649  0.00  0.00     0.210 C 
ATOM     15  C   LIG d   1      -4.326  80.732 118.754  0.00  0.00     0.109 C 
ATOM     16  O   LIG d   1      -4.207  78.485 119.613  0.00  0.00    -0.276 OA
ATOM     17  H   LIG d   1      -3.307  79.542 116.774  0.00  0.00     0.149 HD
ENDBRANCH   6  13
BRANCH   5  18
ATOM     18  N   LIG d   1      -1.470  77.187 119.082  0.00  0.00     0.381 N 
ATOM     19  H   LIG d   1      -0.568  76.828 119.326  0.00  0.00    -0.090 HD
ATOM     20  H   LIG d   1      -2.167  76.619 119.530  0.00  0.00    -0.090 HD
ATOM     21  H   LIG d   1      -1.553  78.131 119.388  0.00  0.00    -0.090 HD
ENDBRANCH   5  18
BRANCH   3  22
ATOM     22  C   LIG d   1      -0.821  74.502 115.169  0.00  0.00     0.382 C 
ATOM     23  O   LIG d   1      -0.721  74.541 113.919  0.00  0.00    -0.241 OA
ATOM     24  O   LIG d   1      -0.256  73.590 115.802  0.00  0.00    -0.241 OA
ENDBRANCH   3  22
TORSDOF 7
ENDMDL
MODEL 7
REMARK VINA RESULT:      -4.7      2.614      3.918
REMARK  7 active torsions:
REMARK  status: ('A' for Active; 'I' for Inactive)
REMARK    1  A    between atoms: C_2  and  C_3 
REMARK    2  A    between atoms: C_3  and  O_6 
REMARK    3  A    between atoms: C_3  and  C_4 
REMARK    4  A    between atoms: C_7  and  O_6 
REMARK    5  A    between atoms: C_9  and  C_10 
REMARK    6  A    between atoms: N_15  and  C_14 
REMARK    7  A    between atoms: N_20  and  C_19 
REMARK       I    between atoms: C_22  and  N_20 
ROOT
ATOM      1  C   LIG d   1      -3.194  78.407 116.877  0.00  0.00     0.161 C 
ATOM      2  C   LIG d   1      -2.237  79.376 117.222  0.00  0.00     0.016 C 
ATOM      3  C   LIG d   1      -0.979  79.488 116.587  0.00  0.00     0.038 C 
ATOM      4  C   LIG d   1      -0.651  78.730 115.453  0.00  0.00     0.028 C 
ATOM      5  C   LIG d   1      -1.383  77.394 115.386  0.00  0.00    -0.047 C 
ATOM      6  C   LIG d   1      -2.898  77.642 115.570  0.00  0.00     0.091 C 
ENDROOT
BRANCH   1   7
ATOM      7  O   LIG d   1      -4.502  79.010 116.820  0.00  0.00    -0.368 OA
BRANCH   7   8
ATOM      8  C   LIG d   1      -5.136  79.279 118.095  0.00  0.00     0.119 C 
BRANCH   8   9
ATOM      9  C   LIG d   1      -6.551  78.672 118.045  0.00  0.00     0.028 C 
ATOM     10  C   LIG d   1      -6.666  77.533 117.018  0.00  0.00     0.006 C 
ENDBRANCH   8   9
BRANCH   8  11
ATOM     11  C   LIG d   1      -5.346  80.781 118.306  0.00  0.00     0.028 C 
ATOM     12  C   LIG d   1      -6.691  81.278 117.752  0.00  0.00     0.006 C 
ENDBRANCH   8  11
ENDBRANCH   7   8
ENDBRANCH   1   7
BRANCH   6  13
ATOM     13  N   LIG d   1      -3.680  76.379 115.601  0.00  0.00    -0.311 N 
ATOM     14  C   LIG d   1      -4.341  75.900 114.549  0.00  0.00     0.210 C 
ATOM     15  C   LIG d   1      -5.100  74.593 114.801  0.00  0.00     0.109 C 
ATOM     16  O   LIG d   1      -4.346  76.417 113.421  0.00  0.00    -0.276 OA
ATOM     17  H   LIG d   1      -3.704  75.878 116.468  0.00  0.00     0.149 HD
ENDBRANCH   6  13
BRANCH   5  18
ATOM     18  N   LIG d   1      -1.053  76.770 114.090  0.00  0.00     0.381 N 
ATOM     19  H   LIG d   1      -1.624  75.960 113.949  0.00  0.00    -0.090 HD
ATOM     20  H   LIG d   1      -0.091  76.479 114.105  0.00  0.00    -0.090 HD
ATOM     21  H   LIG d   1      -1.200  77.421 113.351  0.00  0.00    -0.090 HD
ENDBRANCH   5  18
BRANCH   3  22
ATOM     22  C   LIG d   1      -0.019  80.340 117.110  0.00  0.00     0.382 C 
ATOM     23  O   LIG d   1      -0.314  81.530 117.377  0.00  0.00    -0.241 OA
ATOM     24  O   LIG d   1       1.151  79.947 117.277  0.00  0.00    -0.241 OA
ENDBRANCH   3  22
TORSDOF 7
ENDMDL
MODEL 8
REMARK VINA RESULT:      -4.6      2.632      3.877
REMARK  7 active torsions:
REMARK  status: ('A' for Active; 'I' for Inactive)
REMARK    1  A    between atoms: C_2  and  C_3 
REMARK    2  A    between atoms: C_3  and  O_6 
REMARK    3  A    between atoms: C_3  and  C_4 
REMARK    4  A    between atoms: C_7  and  O_6 
REMARK    5  A    between atoms: C_9  and  C_10 
REMARK    6  A    between atoms: N_15  and  C_14 
REMARK    7  A    between atoms: N_20  and  C_19 
REMARK       I    between atoms: C_22  and  N_20 
ROOT
ATOM      1  C   LIG d   1      -1.023  77.789 115.742  0.00  0.00     0.161 C 
ATOM      2  C   LIG d   1      -2.258  77.574 115.108  0.00  0.00     0.016 C 
ATOM      3  C   LIG d   1      -2.808  76.289 114.891  0.00  0.00     0.038 C 
ATOM      4  C   LIG d   1      -2.226  75.133 115.430  0.00  0.00     0.028 C 
ATOM      5  C   LIG d   1      -0.721  75.253 115.640  0.00  0.00    -0.047 C 
ATOM      6  C   LIG d   1      -0.427  76.546 116.436  0.00  0.00     0.091 C 
ENDROOT
BRANCH   1   7
ATOM      7  O   LIG d   1      -1.137  78.879 116.678  0.00  0.00    -0.368 OA
BRANCH   7   8
ATOM      8  C   LIG d   1      -2.046  78.674 117.787  0.00  0.00     0.119 C 
BRANCH   8   9
ATOM      9  C   LIG d   1      -2.984  79.895 117.849  0.00  0.00     0.028 C 
ATOM     10  C   LIG d   1      -4.464  79.506 117.696  0.00  0.00     0.006 C 
ENDBRANCH   8   9
BRANCH   8  11
ATOM     11  C   LIG d   1      -1.300  78.668 119.125  0.00  0.00     0.028 C 
ATOM     12  C   LIG d   1      -1.840  77.614 120.104  0.00  0.00     0.006 C 
ENDBRANCH   8  11
ENDBRANCH   7   8
ENDBRANCH   1   7
BRANCH   6  13
ATOM     13  N   LIG d   1       1.029  76.785 116.612  0.00  0.00    -0.311 N 
ATOM     14  C   LIG d   1       1.677  76.552 117.752  0.00  0.00     0.210 C 
ATOM     15  C   LIG d   1       3.172  76.885 117.726  0.00  0.00     0.109 C 
ATOM     16  O   LIG d   1       1.163  76.071 118.773  0.00  0.00    -0.276 OA
ATOM     17  H   LIG d   1       1.531  77.145 115.824  0.00  0.00     0.149 HD
ENDBRANCH   6  13
BRANCH   5  18
ATOM     18  N   LIG d   1      -0.268  74.033 116.334  0.00  0.00     0.381 N 
ATOM     19  H   LIG d   1      -0.941  73.766 117.024  0.00  0.00    -0.090 HD
ATOM     20  H   LIG d   1       0.602  74.226 116.799  0.00  0.00    -0.090 HD
ATOM     21  H   LIG d   1      -0.144  73.294 115.677  0.00  0.00    -0.090 HD
ENDBRANCH   5  18
BRANCH   3  22
ATOM     22  C   LIG d   1      -3.932  76.149 114.091  0.00  0.00     0.382 C 
ATOM     23  O   LIG d   1      -4.694  75.165 114.248  0.00  0.00    -0.241 OA
ATOM     24  O   LIG d   1      -4.170  76.971 113.186  0.00  0.00    -0.241 OA
ENDBRANCH   3  22
TORSDOF 7
ENDMDL
MODEL 9
REMARK VINA RESULT:      -4.6      4.160      6.338
REMARK  7 active torsions:
REMARK  status: ('A' for Active; 'I' for Inactive)
REMARK    1  A    between atoms: C_2  and  C_3 
REMARK    2  A    between atoms: C_3  and  O_6 
REMARK    3  A    between atoms: C_3  and  C_4 
REMARK    4  A    between atoms: C_7  and  O_6 
REMARK    5  A    between atoms: C_9  and  C_10 
REMARK    6  A    between atoms: N_15  and  C_14 
REMARK    7  A    between atoms: N_20  and  C_19 
REMARK       I    between atoms: C_22  and  N_20 
ROOT
ATOM      1  C   LIG d   1      -6.239  79.036 118.190  0.00  0.00     0.161 C 
ATOM      2  C   LIG d   1      -7.566  79.410 117.918  0.00  0.00     0.016 C 
ATOM      3  C   LIG d   1      -8.159  80.591 118.419  0.00  0.00     0.038 C 
ATOM      4  C   LIG d   1      -7.415  81.561 119.107  0.00  0.00     0.028 C 
ATOM      5  C   LIG d   1      -6.204  80.989 119.837  0.00  0.00    -0.047 C 
ATOM      6  C   LIG d   1      -5.379  80.135 118.847  0.00  0.00     0.091 C 
ENDROOT
BRANCH   1   7
ATOM      7  O   LIG d   1      -5.609  78.559 116.985  0.00  0.00    -0.368 OA
BRANCH   7   8
ATOM      8  C   LIG d   1      -5.296  77.145 116.945  0.00  0.00     0.119 C 
BRANCH   8   9
ATOM      9  C   LIG d   1      -3.878  77.001 116.359  0.00  0.00     0.028 C 
ATOM     10  C   LIG d   1      -3.165  78.356 116.208  0.00  0.00     0.006 C 
ENDBRANCH   8   9
BRANCH   8  11
ATOM     11  C   LIG d   1      -6.214  76.398 115.973  0.00  0.00     0.028 C 
ATOM     12  C   LIG d   1      -5.482  75.923 114.708  0.00  0.00     0.006 C 
ENDBRANCH   8  11
ENDBRANCH   7   8
ENDBRANCH   1   7
BRANCH   6  13
ATOM     13  N   LIG d   1      -4.221  79.470 119.500  0.00  0.00    -0.311 N 
ATOM     14  C   LIG d   1      -2.998  79.995 119.534  0.00  0.00     0.210 C 
ATOM     15  C   LIG d   1      -1.945  79.136 120.240  0.00  0.00     0.109 C 
ATOM     16  O   LIG d   1      -2.691  81.105 119.073  0.00  0.00    -0.276 OA
ATOM     17  H   LIG d   1      -4.388  78.580 119.926  0.00  0.00     0.149 HD
ENDBRANCH   6  13
BRANCH   5  18
ATOM     18  N   LIG d   1      -5.444  82.123 120.395  0.00  0.00     0.381 N 
ATOM     19  H   LIG d   1      -4.481  81.871 120.492  0.00  0.00    -0.090 HD
ATOM     20  H   LIG d   1      -5.806  82.341 121.306  0.00  0.00    -0.090 HD
ATOM     21  H   LIG d   1      -5.527  82.917 119.798  0.00  0.00    -0.090 HD
ENDBRANCH   5  18
BRANCH   3  22
ATOM     22  C   LIG d   1      -9.523  80.793 118.267  0.00  0.00     0.382 C 
ATOM     23  O   LIG d   1      -9.958  81.928 117.954  0.00  0.00    -0.241 OA
ATOM     24  O   LIG d   1     -10.327  79.866 118.482  0.00  0.00    -0.241 OA
ENDBRANCH   3  22
TORSDOF 7
ENDMDL
