MODEL 1
REMARK VINA RESULT:      -6.5      0.000      0.000
REMARK  7 active torsions:
REMARK  status: ('A' for Active; 'I' for Inactive)
REMARK    1  A    between atoms: C_2  and  C_3 
REMARK    2  A    between atoms: C_3  and  O_6 
REMARK    3  A    between atoms: C_3  and  C_4 
REMARK    4  A    between atoms: C_7  and  O_6 
REMARK    5  A    between atoms: C_9  and  C_10 
REMARK    6  A    between atoms: N_15  and  C_14 
REMARK    7  A    between atoms: N_20  and  C_19 
REMARK       I    between atoms: C_22  and  N_20 
ROOT
ATOM      1  C   LIG d   1      -7.685  75.991 117.796  0.00  0.00     0.161 C 
ATOM      2  C   LIG d   1      -8.983  76.081 118.326  0.00  0.00     0.016 C 
ATOM      3  C   LIG d   1      -9.589  77.303 118.699  0.00  0.00     0.038 C 
ATOM      4  C   LIG d   1      -8.990  78.541 118.423  0.00  0.00     0.028 C 
ATOM      5  C   LIG d   1      -7.468  78.475 118.351  0.00  0.00    -0.047 C 
ATOM      6  C   LIG d   1      -7.060  77.340 117.385  0.00  0.00     0.091 C 
ENDROOT
BRANCH   1   7
ATOM      7  O   LIG d   1      -7.674  75.074 116.684  0.00  0.00    -0.368 OA
BRANCH   7   8
ATOM      8  C   LIG d   1      -7.668  73.665 117.020  0.00  0.00     0.119 C 
BRANCH   8   9
ATOM      9  C   LIG d   1      -6.722  72.957 116.031  0.00  0.00     0.028 C 
ATOM     10  C   LIG d   1      -5.818  73.945 115.275  0.00  0.00     0.006 C 
ENDBRANCH   8   9
BRANCH   8  11
ATOM     11  C   LIG d   1      -9.044  73.031 116.789  0.00  0.00     0.028 C 
ATOM     12  C   LIG d   1      -8.956  71.558 116.361  0.00  0.00     0.006 C 
ENDBRANCH   8  11
ENDBRANCH   7   8
ENDBRANCH   1   7
BRANCH   6  13
ATOM     13  N   LIG d   1      -5.587  77.152 117.322  0.00  0.00    -0.311 N 
ATOM     14  C   LIG d   1      -4.889  77.205 116.188  0.00  0.00     0.210 C 
ATOM     15  C   LIG d   1      -3.384  76.964 116.343  0.00  0.00     0.109 C 
ATOM     16  O   LIG d   1      -5.369  77.462 115.074  0.00  0.00    -0.276 OA
ATOM     17  H   LIG d   1      -5.112  76.970 118.184  0.00  0.00     0.149 HD
ENDBRANCH   6  13
BRANCH   5  18
ATOM     18  N   LIG d   1      -6.984  79.801 117.923  0.00  0.00     0.381 N 
ATOM     19  H   LIG d   1      -6.445  80.218 118.655  0.00  0.00    -0.090 HD
ATOM     20  H   LIG d   1      -7.776  80.392 117.738  0.00  0.00    -0.090 HD
ATOM     21  H   LIG d   1      -6.428  79.712 117.101  0.00  0.00    -0.090 HD
ENDBRANCH   5  18
BRANCH   3  22
ATOM     22  C   LIG d   1     -10.790  77.292 119.391  0.00  0.00     0.382 C 
ATOM     23  O   LIG d   1     -11.838  76.901 118.822  0.00  0.00    -0.241 OA
ATOM     24  O   LIG d   1     -10.848  77.710 120.562  0.00  0.00    -0.241 OA
ENDBRANCH   3  22
TORSDOF 7
ENDMDL
MODEL 2
REMARK VINA RESULT:      -6.3      1.952      4.962
REMARK  7 active torsions:
REMARK  status: ('A' for Active; 'I' for Inactive)
REMARK    1  A    between atoms: C_2  and  C_3 
REMARK    2  A    between atoms: C_3  and  O_6 
REMARK    3  A    between atoms: C_3  and  C_4 
REMARK    4  A    between atoms: C_7  and  O_6 
REMARK    5  A    between atoms: C_9  and  C_10 
REMARK    6  A    between atoms: N_15  and  C_14 
REMARK    7  A    between atoms: N_20  and  C_19 
REMARK       I    between atoms: C_22  and  N_20 
ROOT
ATOM      1  C   LIG d   1      -7.148  76.516 116.797  0.00  0.00     0.161 C 
ATOM      2  C   LIG d   1      -6.188  76.099 115.861  0.00  0.00     0.016 C 
ATOM      3  C   LIG d   1      -4.976  76.790 115.629  0.00  0.00     0.038 C 
ATOM      4  C   LIG d   1      -4.572  77.868 116.430  0.00  0.00     0.028 C 
ATOM      5  C   LIG d   1      -5.737  78.631 117.051  0.00  0.00    -0.047 C 
ATOM      6  C   LIG d   1      -6.675  77.626 117.758  0.00  0.00     0.091 C 
ENDROOT
BRANCH   1   7
ATOM      7  O   LIG d   1      -7.630  75.380 117.542  0.00  0.00    -0.368 OA
BRANCH   7   8
ATOM      8  C   LIG d   1      -8.237  74.318 116.765  0.00  0.00     0.119 C 
BRANCH   8   9
ATOM      9  C   LIG d   1      -9.729  74.260 117.147  0.00  0.00     0.028 C 
ATOM     10  C   LIG d   1     -10.223  75.570 117.783  0.00  0.00     0.006 C 
ENDBRANCH   8   9
BRANCH   8  11
ATOM     11  C   LIG d   1      -7.666  72.950 117.148  0.00  0.00     0.028 C 
ATOM     12  C   LIG d   1      -8.329  71.793 116.384  0.00  0.00     0.006 C 
ENDBRANCH   8  11
ENDBRANCH   7   8
ENDBRANCH   1   7
BRANCH   6  13
ATOM     13  N   LIG d   1      -7.886  78.280 118.321  0.00  0.00    -0.311 N 
ATOM     14  C   LIG d   1      -8.227  78.208 119.606  0.00  0.00     0.210 C 
ATOM     15  C   LIG d   1      -9.523  78.937 119.973  0.00  0.00     0.109 C 
ATOM     16  O   LIG d   1      -7.562  77.637 120.484  0.00  0.00    -0.276 OA
ATOM     17  H   LIG d   1      -8.465  78.791 117.685  0.00  0.00     0.149 HD
ENDBRANCH   6  13
BRANCH   5  18
ATOM     18  N   LIG d   1      -5.172  79.638 117.968  0.00  0.00     0.381 N 
ATOM     19  H   LIG d   1      -5.713  79.672 118.809  0.00  0.00    -0.090 HD
ATOM     20  H   LIG d   1      -5.217  80.541 117.528  0.00  0.00    -0.090 HD
ATOM     21  H   LIG d   1      -4.226  79.412 118.182  0.00  0.00    -0.090 HD
ENDBRANCH   5  18
BRANCH   3  22
ATOM     22  C   LIG d   1      -4.173  76.427 114.558  0.00  0.00     0.382 C 
ATOM     23  O   LIG d   1      -4.382  76.918 113.423  0.00  0.00    -0.241 OA
ATOM     24  O   LIG d   1      -3.270  75.582 114.704  0.00  0.00    -0.241 OA
ENDBRANCH   3  22
TORSDOF 7
ENDMDL
MODEL 3
REMARK VINA RESULT:      -5.7      1.983      4.866
REMARK  7 active torsions:
REMARK  status: ('A' for Active; 'I' for Inactive)
REMARK    1  A    between atoms: C_2  and  C_3 
REMARK    2  A    between atoms: C_3  and  O_6 
REMARK    3  A    between atoms: C_3  and  C_4 
REMARK    4  A    between atoms: C_7  and  O_6 
REMARK    5  A    between atoms: C_9  and  C_10 
REMARK    6  A    between atoms: N_15  and  C_14 
REMARK    7  A    between atoms: N_20  and  C_19 
REMARK       I    between atoms: C_22  and  N_20 
ROOT
ATOM      1  C   LIG d   1      -7.038  77.418 117.188  0.00  0.00     0.161 C 
ATOM      2  C   LIG d   1      -6.768  76.728 115.994  0.00  0.00     0.016 C 
ATOM      3  C   LIG d   1      -5.472  76.601 115.444  0.00  0.00     0.038 C 
ATOM      4  C   LIG d   1      -4.329  77.030 116.134  0.00  0.00     0.028 C 
ATOM      5  C   LIG d   1      -4.600  78.178 117.101  0.00  0.00    -0.047 C 
ATOM      6  C   LIG d   1      -5.789  77.796 118.011  0.00  0.00     0.091 C 
ENDROOT
BRANCH   1   7
ATOM      7  O   LIG d   1      -7.958  76.657 117.995  0.00  0.00    -0.368 OA
BRANCH   7   8
ATOM      8  C   LIG d   1      -8.754  75.670 117.294  0.00  0.00     0.119 C 
BRANCH   8   9
ATOM      9  C   LIG d   1     -10.187  75.745 117.857  0.00  0.00     0.028 C 
ATOM     10  C   LIG d   1     -10.312  76.757 119.009  0.00  0.00     0.006 C 
ENDBRANCH   8   9
BRANCH   8  11
ATOM     11  C   LIG d   1      -8.273  74.248 117.599  0.00  0.00     0.028 C 
ATOM     12  C   LIG d   1      -9.090  73.172 116.865  0.00  0.00     0.006 C 
ENDBRANCH   8  11
ENDBRANCH   7   8
ENDBRANCH   1   7
BRANCH   6  13
ATOM     13  N   LIG d   1      -6.175  78.898 118.931  0.00  0.00    -0.311 N 
ATOM     14  C   LIG d   1      -6.421  80.142 118.523  0.00  0.00     0.210 C 
ATOM     15  C   LIG d   1      -6.783  81.128 119.638  0.00  0.00     0.109 C 
ATOM     16  O   LIG d   1      -6.405  80.514 117.340  0.00  0.00    -0.276 OA
ATOM     17  H   LIG d   1      -6.241  78.677 119.906  0.00  0.00     0.149 HD
ENDBRANCH   6  13
BRANCH   5  18
ATOM     18  N   LIG d   1      -3.355  78.432 117.851  0.00  0.00     0.381 N 
ATOM     19  H   LIG d   1      -3.477  78.167 118.808  0.00  0.00    -0.090 HD
ATOM     20  H   LIG d   1      -3.152  79.415 117.819  0.00  0.00    -0.090 HD
ATOM     21  H   LIG d   1      -2.603  77.916 117.449  0.00  0.00    -0.090 HD
ENDBRANCH   5  18
BRANCH   3  22
ATOM     22  C   LIG d   1      -5.314  76.075 114.171  0.00  0.00     0.382 C 
ATOM     23  O   LIG d   1      -4.947  74.884 114.025  0.00  0.00    -0.241 OA
ATOM     24  O   LIG d   1      -5.492  76.789 113.166  0.00  0.00    -0.241 OA
ENDBRANCH   3  22
TORSDOF 7
ENDMDL
MODEL 4
REMARK VINA RESULT:      -5.7     15.000     17.574
REMARK  7 active torsions:
REMARK  status: ('A' for Active; 'I' for Inactive)
REMARK    1  A    between atoms: C_2  and  C_3 
REMARK    2  A    between atoms: C_3  and  O_6 
REMARK    3  A    between atoms: C_3  and  C_4 
REMARK    4  A    between atoms: C_7  and  O_6 
REMARK    5  A    between atoms: C_9  and  C_10 
REMARK    6  A    between atoms: N_15  and  C_14 
REMARK    7  A    between atoms: N_20  and  C_19 
REMARK       I    between atoms: C_22  and  N_20 
ROOT
ATOM      1  C   LIG d   1      -6.132  93.237 117.514  0.00  0.00     0.161 C 
ATOM      2  C   LIG d   1      -6.950  92.236 116.965  0.00  0.00     0.016 C 
ATOM      3  C   LIG d   1      -6.463  90.979 116.540  0.00  0.00     0.038 C 
ATOM      4  C   LIG d   1      -5.140  90.578 116.778  0.00  0.00     0.028 C 
ATOM      5  C   LIG d   1      -4.161  91.743 116.872  0.00  0.00    -0.047 C 
ATOM      6  C   LIG d   1      -4.706  92.776 117.884  0.00  0.00     0.091 C 
ENDROOT
BRANCH   1   7
ATOM      7  O   LIG d   1      -6.781  93.825 118.659  0.00  0.00    -0.368 OA
BRANCH   7   8
ATOM      8  C   LIG d   1      -7.209  95.201 118.513  0.00  0.00     0.119 C 
BRANCH   8   9
ATOM      9  C   LIG d   1      -6.938  95.915 119.851  0.00  0.00     0.028 C 
ATOM     10  C   LIG d   1      -5.980  95.122 120.756  0.00  0.00     0.006 C 
ENDBRANCH   8   9
BRANCH   8  11
ATOM     11  C   LIG d   1      -8.723  95.295 118.302  0.00  0.00     0.028 C 
ATOM     12  C   LIG d   1      -9.524  94.637 119.437  0.00  0.00     0.006 C 
ENDBRANCH   8  11
ENDBRANCH   7   8
ENDBRANCH   1   7
BRANCH   6  13
ATOM     13  N   LIG d   1      -3.851  93.988 117.973  0.00  0.00    -0.311 N 
ATOM     14  C   LIG d   1      -2.903  94.150 118.895  0.00  0.00     0.210 C 
ATOM     15  C   LIG d   1      -2.150  95.483 118.821  0.00  0.00     0.109 C 
ATOM     16  O   LIG d   1      -2.591  93.303 119.746  0.00  0.00    -0.276 OA
ATOM     17  H   LIG d   1      -4.015  94.713 117.302  0.00  0.00     0.149 HD
ENDBRANCH   6  13
BRANCH   5  18
ATOM     18  N   LIG d   1      -2.848  91.193 117.258  0.00  0.00     0.381 N 
ATOM     19  H   LIG d   1      -2.423  91.782 117.946  0.00  0.00    -0.090 HD
ATOM     20  H   LIG d   1      -2.253  91.173 116.448  0.00  0.00    -0.090 HD
ATOM     21  H   LIG d   1      -2.958  90.272 117.621  0.00  0.00    -0.090 HD
ENDBRANCH   5  18
BRANCH   3  22
ATOM     22  C   LIG d   1      -7.294  90.123 115.834  0.00  0.00     0.382 C 
ATOM     23  O   LIG d   1      -8.146  89.431 116.443  0.00  0.00    -0.241 OA
ATOM     24  O   LIG d   1      -7.172  90.000 114.600  0.00  0.00    -0.241 OA
ENDBRANCH   3  22
TORSDOF 7
ENDMDL
MODEL 5
REMARK VINA RESULT:      -5.6      2.128      5.067
REMARK  7 active torsions:
REMARK  status: ('A' for Active; 'I' for Inactive)
REMARK    1  A    between atoms: C_2  and  C_3 
REMARK    2  A    between atoms: C_3  and  O_6 
REMARK    3  A    between atoms: C_3  and  C_4 
REMARK    4  A    between atoms: C_7  and  O_6 
REMARK    5  A    between atoms: C_9  and  C_10 
REMARK    6  A    between atoms: N_15  and  C_14 
REMARK    7  A    between atoms: N_20  and  C_19 
REMARK       I    between atoms: C_22  and  N_20 
ROOT
ATOM      1  C   LIG d   1      -7.239  76.701 117.599  0.00  0.00     0.161 C 
ATOM      2  C   LIG d   1      -7.296  75.386 117.108  0.00  0.00     0.016 C 
ATOM      3  C   LIG d   1      -8.453  74.576 117.185  0.00  0.00     0.038 C 
ATOM      4  C   LIG d   1      -9.685  75.083 117.624  0.00  0.00     0.028 C 
ATOM      5  C   LIG d   1      -9.548  76.250 118.597  0.00  0.00    -0.047 C 
ATOM      6  C   LIG d   1      -8.605  77.309 117.981  0.00  0.00     0.091 C 
ENDROOT
BRANCH   1   7
ATOM      7  O   LIG d   1      -6.562  77.548 116.649  0.00  0.00    -0.368 OA
BRANCH   7   8
ATOM      8  C   LIG d   1      -5.116  77.573 116.735  0.00  0.00     0.119 C 
BRANCH   8   9
ATOM      9  C   LIG d   1      -4.688  79.043 116.909  0.00  0.00     0.028 C 
ATOM     10  C   LIG d   1      -4.545  79.440 118.388  0.00  0.00     0.006 C 
ENDBRANCH   8   9
BRANCH   8  11
ATOM     11  C   LIG d   1      -4.472  77.116 115.422  0.00  0.00     0.028 C 
ATOM     12  C   LIG d   1      -3.630  75.841 115.584  0.00  0.00     0.006 C 
ENDBRANCH   8  11
ENDBRANCH   7   8
ENDBRANCH   1   7
BRANCH   6  13
ATOM     13  N   LIG d   1      -8.349  78.445 118.904  0.00  0.00    -0.311 N 
ATOM     14  C   LIG d   1      -9.129  79.522 118.974  0.00  0.00     0.210 C 
ATOM     15  C   LIG d   1      -8.674  80.586 119.978  0.00  0.00     0.109 C 
ATOM     16  O   LIG d   1     -10.173  79.684 118.323  0.00  0.00    -0.276 OA
ATOM     17  H   LIG d   1      -7.540  78.383 119.490  0.00  0.00     0.149 HD
ENDBRANCH   6  13
BRANCH   5  18
ATOM     18  N   LIG d   1     -10.902  76.768 118.866  0.00  0.00     0.381 N 
ATOM     19  H   LIG d   1     -10.868  77.437 119.609  0.00  0.00    -0.090 HD
ATOM     20  H   LIG d   1     -11.490  76.006 119.155  0.00  0.00    -0.090 HD
ATOM     21  H   LIG d   1     -11.274  77.192 118.045  0.00  0.00    -0.090 HD
ENDBRANCH   5  18
BRANCH   3  22
ATOM     22  C   LIG d   1      -8.374  73.232 116.856  0.00  0.00     0.382 C 
ATOM     23  O   LIG d   1      -9.411  72.525 116.851  0.00  0.00    -0.241 OA
ATOM     24  O   LIG d   1      -7.272  72.706 116.607  0.00  0.00    -0.241 OA
ENDBRANCH   3  22
TORSDOF 7
ENDMDL
MODEL 6
REMARK VINA RESULT:      -5.4      2.375      6.474
REMARK  7 active torsions:
REMARK  status: ('A' for Active; 'I' for Inactive)
REMARK    1  A    between atoms: C_2  and  C_3 
REMARK    2  A    between atoms: C_3  and  O_6 
REMARK    3  A    between atoms: C_3  and  C_4 
REMARK    4  A    between atoms: C_7  and  O_6 
REMARK    5  A    between atoms: C_9  and  C_10 
REMARK    6  A    between atoms: N_15  and  C_14 
REMARK    7  A    between atoms: N_20  and  C_19 
REMARK       I    between atoms: C_22  and  N_20 
ROOT
ATOM      1  C   LIG d   1      -6.293  77.969 117.464  0.00  0.00     0.161 C 
ATOM      2  C   LIG d   1      -5.490  77.611 116.368  0.00  0.00     0.016 C 
ATOM      3  C   LIG d   1      -5.720  76.462 115.577  0.00  0.00     0.038 C 
ATOM      4  C   LIG d   1      -6.866  75.669 115.738  0.00  0.00     0.028 C 
ATOM      5  C   LIG d   1      -7.434  75.704 117.153  0.00  0.00    -0.047 C 
ATOM      6  C   LIG d   1      -7.612  77.177 117.586  0.00  0.00     0.091 C 
ENDROOT
BRANCH   1   7
ATOM      7  O   LIG d   1      -6.560  79.385 117.433  0.00  0.00    -0.368 OA
BRANCH   7   8
ATOM      8  C   LIG d   1      -5.742  80.207 118.302  0.00  0.00     0.119 C 
BRANCH   8   9
ATOM      9  C   LIG d   1      -5.270  79.319 119.470  0.00  0.00     0.028 C 
ATOM     10  C   LIG d   1      -5.972  79.668 120.793  0.00  0.00     0.006 C 
ENDBRANCH   8   9
BRANCH   8  11
ATOM     11  C   LIG d   1      -6.565  81.324 118.949  0.00  0.00     0.028 C 
ATOM     12  C   LIG d   1      -7.815  81.692 118.134  0.00  0.00     0.006 C 
ENDBRANCH   8  11
ENDBRANCH   7   8
ENDBRANCH   1   7
BRANCH   6  13
ATOM     13  N   LIG d   1      -8.084  77.302 118.989  0.00  0.00    -0.311 N 
ATOM     14  C   LIG d   1      -9.183  77.970 119.336  0.00  0.00     0.210 C 
ATOM     15  C   LIG d   1      -9.478  77.992 120.839  0.00  0.00     0.109 C 
ATOM     16  O   LIG d   1      -9.958  78.518 118.539  0.00  0.00    -0.276 OA
ATOM     17  H   LIG d   1      -7.531  76.861 119.698  0.00  0.00     0.149 HD
ENDBRANCH   6  13
BRANCH   5  18
ATOM     18  N   LIG d   1      -8.700  74.947 117.144  0.00  0.00     0.381 N 
ATOM     19  H   LIG d   1      -9.048  74.858 118.077  0.00  0.00    -0.090 HD
ATOM     20  H   LIG d   1      -8.526  74.026 116.782  0.00  0.00    -0.090 HD
ATOM     21  H   LIG d   1      -9.372  75.413 116.574  0.00  0.00    -0.090 HD
ENDBRANCH   5  18
BRANCH   3  22
ATOM     22  C   LIG d   1      -4.777  76.073 114.639  0.00  0.00     0.382 C 
ATOM     23  O   LIG d   1      -4.030  75.092 114.870  0.00  0.00    -0.241 OA
ATOM     24  O   LIG d   1      -4.632  76.719 113.583  0.00  0.00    -0.241 OA
ENDBRANCH   3  22
TORSDOF 7
ENDMDL
MODEL 7
REMARK VINA RESULT:      -5.3     13.874     16.111
REMARK  7 active torsions:
REMARK  status: ('A' for Active; 'I' for Inactive)
REMARK    1  A    between atoms: C_2  and  C_3 
REMARK    2  A    between atoms: C_3  and  O_6 
REMARK    3  A    between atoms: C_3  and  C_4 
REMARK    4  A    between atoms: C_7  and  O_6 
REMARK    5  A    between atoms: C_9  and  C_10 
REMARK    6  A    between atoms: N_15  and  C_14 
REMARK    7  A    between atoms: N_20  and  C_19 
REMARK       I    between atoms: C_22  and  N_20 
ROOT
ATOM      1  C   LIG d   1      -4.373  91.206 117.860  0.00  0.00     0.161 C 
ATOM      2  C   LIG d   1      -5.224  90.463 117.024  0.00  0.00     0.016 C 
ATOM      3  C   LIG d   1      -6.416  90.983 116.468  0.00  0.00     0.038 C 
ATOM      4  C   LIG d   1      -6.761  92.337 116.587  0.00  0.00     0.028 C 
ATOM      5  C   LIG d   1      -6.194  92.998 117.839  0.00  0.00    -0.047 C 
ATOM      6  C   LIG d   1      -4.676  92.718 117.911  0.00  0.00     0.091 C 
ENDROOT
BRANCH   1   7
ATOM      7  O   LIG d   1      -3.000  90.982 117.482  0.00  0.00    -0.368 OA
BRANCH   7   8
ATOM      8  C   LIG d   1      -2.187  90.257 118.436  0.00  0.00     0.119 C 
BRANCH   8   9
ATOM      9  C   LIG d   1      -0.712  90.478 118.049  0.00  0.00     0.028 C 
ATOM     10  C   LIG d   1      -0.505  91.768 117.238  0.00  0.00     0.006 C 
ENDBRANCH   8   9
BRANCH   8  11
ATOM     11  C   LIG d   1      -2.413  88.746 118.326  0.00  0.00     0.028 C 
ATOM     12  C   LIG d   1      -2.953  88.128 119.625  0.00  0.00     0.006 C 
ENDBRANCH   8  11
ENDBRANCH   7   8
ENDBRANCH   1   7
BRANCH   6  13
ATOM     13  N   LIG d   1      -4.058  93.259 119.150  0.00  0.00    -0.311 N 
ATOM     14  C   LIG d   1      -3.008  94.079 119.148  0.00  0.00     0.210 C 
ATOM     15  C   LIG d   1      -2.516  94.502 120.536  0.00  0.00     0.109 C 
ATOM     16  O   LIG d   1      -2.458  94.521 118.128  0.00  0.00    -0.276 OA
ATOM     17  H   LIG d   1      -4.461  92.975 120.022  0.00  0.00     0.149 HD
ENDBRANCH   6  13
BRANCH   5  18
ATOM     18  N   LIG d   1      -6.514  94.437 117.767  0.00  0.00     0.381 N 
ATOM     19  H   LIG d   1      -6.979  94.637 116.904  0.00  0.00    -0.090 HD
ATOM     20  H   LIG d   1      -5.658  94.962 117.794  0.00  0.00    -0.090 HD
ATOM     21  H   LIG d   1      -7.095  94.695 118.534  0.00  0.00    -0.090 HD
ENDBRANCH   5  18
BRANCH   3  22
ATOM     22  C   LIG d   1      -7.296  90.134 115.815  0.00  0.00     0.382 C 
ATOM     23  O   LIG d   1      -7.293  90.069 114.562  0.00  0.00    -0.241 OA
ATOM     24  O   LIG d   1      -8.125  89.465 116.461  0.00  0.00    -0.241 OA
ENDBRANCH   3  22
TORSDOF 7
ENDMDL
MODEL 8
REMARK VINA RESULT:      -5.2     15.243     17.847
REMARK  7 active torsions:
REMARK  status: ('A' for Active; 'I' for Inactive)
REMARK    1  A    between atoms: C_2  and  C_3 
REMARK    2  A    between atoms: C_3  and  O_6 
REMARK    3  A    between atoms: C_3  and  C_4 
REMARK    4  A    between atoms: C_7  and  O_6 
REMARK    5  A    between atoms: C_9  and  C_10 
REMARK    6  A    between atoms: N_15  and  C_14 
REMARK    7  A    between atoms: N_20  and  C_19 
REMARK       I    between atoms: C_22  and  N_20 
ROOT
ATOM      1  C   LIG d   1      -4.953  92.741 117.999  0.00  0.00     0.161 C 
ATOM      2  C   LIG d   1      -5.005  91.692 117.066  0.00  0.00     0.016 C 
ATOM      3  C   LIG d   1      -6.138  91.418 116.266  0.00  0.00     0.038 C 
ATOM      4  C   LIG d   1      -7.249  92.274 116.236  0.00  0.00     0.028 C 
ATOM      5  C   LIG d   1      -7.444  93.059 117.529  0.00  0.00    -0.047 C 
ATOM      6  C   LIG d   1      -6.114  93.752 117.901  0.00  0.00     0.091 C 
ENDROOT
BRANCH   1   7
ATOM      7  O   LIG d   1      -3.686  93.421 117.899  0.00  0.00    -0.368 OA
BRANCH   7   8
ATOM      8  C   LIG d   1      -2.723  93.131 118.942  0.00  0.00     0.119 C 
BRANCH   8   9
ATOM      9  C   LIG d   1      -2.615  94.383 119.834  0.00  0.00     0.028 C 
ATOM     10  C   LIG d   1      -2.727  95.688 119.029  0.00  0.00     0.006 C 
ENDBRANCH   8   9
BRANCH   8  11
ATOM     11  C   LIG d   1      -1.320  92.924 118.362  0.00  0.00     0.028 C 
ATOM     12  C   LIG d   1      -1.227  91.688 117.453  0.00  0.00     0.006 C 
ENDBRANCH   8  11
ENDBRANCH   7   8
ENDBRANCH   1   7
BRANCH   6  13
ATOM     13  N   LIG d   1      -6.194  94.473 119.198  0.00  0.00    -0.311 N 
ATOM     14  C   LIG d   1      -6.496  95.766 119.301  0.00  0.00     0.210 C 
ATOM     15  C   LIG d   1      -6.504  96.317 120.730  0.00  0.00     0.109 C 
ATOM     16  O   LIG d   1      -6.790  96.502 118.347  0.00  0.00    -0.276 OA
ATOM     17  H   LIG d   1      -6.001  93.945 120.026  0.00  0.00     0.149 HD
ENDBRANCH   6  13
BRANCH   5  18
ATOM     18  N   LIG d   1      -8.551  94.009 117.311  0.00  0.00     0.381 N 
ATOM     19  H   LIG d   1      -8.212  94.947 117.392  0.00  0.00    -0.090 HD
ATOM     20  H   LIG d   1      -9.249  93.864 118.019  0.00  0.00    -0.090 HD
ATOM     21  H   LIG d   1      -8.948  93.869 116.408  0.00  0.00    -0.090 HD
ENDBRANCH   5  18
BRANCH   3  22
ATOM     22  C   LIG d   1      -6.183  90.255 115.513  0.00  0.00     0.382 C 
ATOM     23  O   LIG d   1      -7.171  90.022 114.776  0.00  0.00    -0.241 OA
ATOM     24  O   LIG d   1      -5.268  89.413 115.595  0.00  0.00    -0.241 OA
ENDBRANCH   3  22
TORSDOF 7
ENDMDL
MODEL 9
REMARK VINA RESULT:      -4.8     15.016     17.276
REMARK  7 active torsions:
REMARK  status: ('A' for Active; 'I' for Inactive)
REMARK    1  A    between atoms: C_2  and  C_3 
REMARK    2  A    between atoms: C_3  and  O_6 
REMARK    3  A    between atoms: C_3  and  C_4 
REMARK    4  A    between atoms: C_7  and  O_6 
REMARK    5  A    between atoms: C_9  and  C_10 
REMARK    6  A    between atoms: N_15  and  C_14 
REMARK    7  A    between atoms: N_20  and  C_19 
REMARK       I    between atoms: C_22  and  N_20 
ROOT
ATOM      1  C   LIG d   1      -5.420  92.690 118.227  0.00  0.00     0.161 C 
ATOM      2  C   LIG d   1      -4.936  93.874 118.807  0.00  0.00     0.016 C 
ATOM      3  C   LIG d   1      -5.725  95.035 118.979  0.00  0.00     0.038 C 
ATOM      4  C   LIG d   1      -7.103  95.041 118.719  0.00  0.00     0.028 C 
ATOM      5  C   LIG d   1      -7.523  94.027 117.660  0.00  0.00    -0.047 C 
ATOM      6  C   LIG d   1      -6.951  92.641 118.038  0.00  0.00     0.091 C 
ENDROOT
BRANCH   1   7
ATOM      7  O   LIG d   1      -4.973  91.553 118.991  0.00  0.00    -0.368 OA
BRANCH   7   8
ATOM      8  C   LIG d   1      -4.106  90.621 118.299  0.00  0.00     0.119 C 
BRANCH   8   9
ATOM      9  C   LIG d   1      -3.030  90.159 119.302  0.00  0.00     0.028 C 
ATOM     10  C   LIG d   1      -2.954  88.627 119.415  0.00  0.00     0.006 C 
ENDBRANCH   8   9
BRANCH   8  11
ATOM     11  C   LIG d   1      -3.336  91.311 117.169  0.00  0.00     0.028 C 
ATOM     12  C   LIG d   1      -1.902  91.692 117.570  0.00  0.00     0.006 C 
ENDBRANCH   8  11
ENDBRANCH   7   8
ENDBRANCH   1   7
BRANCH   6  13
ATOM     13  N   LIG d   1      -7.245  91.608 117.012  0.00  0.00    -0.311 N 
ATOM     14  C   LIG d   1      -6.821  91.685 115.751  0.00  0.00     0.210 C 
ATOM     15  C   LIG d   1      -7.253  90.522 114.852  0.00  0.00     0.109 C 
ATOM     16  O   LIG d   1      -6.102  92.590 115.301  0.00  0.00    -0.276 OA
ATOM     17  H   LIG d   1      -7.796  90.823 117.299  0.00  0.00     0.149 HD
ENDBRANCH   6  13
BRANCH   5  18
ATOM     18  N   LIG d   1      -8.997  94.043 117.588  0.00  0.00     0.381 N 
ATOM     19  H   LIG d   1      -9.362  94.690 118.258  0.00  0.00    -0.090 HD
ATOM     20  H   LIG d   1      -9.343  93.127 117.812  0.00  0.00    -0.090 HD
ATOM     21  H   LIG d   1      -9.290  94.302 116.671  0.00  0.00    -0.090 HD
ENDBRANCH   5  18
BRANCH   3  22
ATOM     22  C   LIG d   1      -5.125  96.220 119.380  0.00  0.00     0.382 C 
ATOM     23  O   LIG d   1      -5.834  97.198 119.719  0.00  0.00    -0.241 OA
ATOM     24  O   LIG d   1      -3.885  96.337 119.364  0.00  0.00    -0.241 OA
ENDBRANCH   3  22
TORSDOF 7
ENDMDL
