MODEL 1
REMARK VINA RESULT:      -5.7      0.000      0.000
REMARK  7 active torsions:
REMARK  status: ('A' for Active; 'I' for Inactive)
REMARK    1  A    between atoms: C_2  and  C_3 
REMARK    2  A    between atoms: C_3  and  O_6 
REMARK    3  A    between atoms: C_3  and  C_4 
REMARK    4  A    between atoms: C_7  and  O_6 
REMARK    5  A    between atoms: C_9  and  C_10 
REMARK    6  A    between atoms: N_15  and  C_14 
REMARK    7  A    between atoms: N_20  and  C_19 
REMARK       I    between atoms: C_22  and  N_20 
ROOT
ATOM      1  C   LIG d   1      -7.592  76.203 117.688  0.00  0.00     0.161 C 
ATOM      2  C   LIG d   1      -8.620  77.155 117.787  0.00  0.00     0.016 C 
ATOM      3  C   LIG d   1      -8.393  78.550 117.773  0.00  0.00     0.038 C 
ATOM      4  C   LIG d   1      -7.128  79.093 117.505  0.00  0.00     0.028 C 
ATOM      5  C   LIG d   1      -5.978  78.173 117.902  0.00  0.00    -0.047 C 
ATOM      6  C   LIG d   1      -6.217  76.776 117.284  0.00  0.00     0.091 C 
ENDROOT
BRANCH   1   7
ATOM      7  O   LIG d   1      -7.983  75.153 116.782  0.00  0.00    -0.368 OA
BRANCH   7   8
ATOM      8  C   LIG d   1      -7.951  73.807 117.315  0.00  0.00     0.119 C 
BRANCH   8   9
ATOM      9  C   LIG d   1      -6.993  72.982 116.433  0.00  0.00     0.028 C 
ATOM     10  C   LIG d   1      -7.493  71.546 116.207  0.00  0.00     0.006 C 
ENDBRANCH   8   9
BRANCH   8  11
ATOM     11  C   LIG d   1      -9.315  73.122 117.181  0.00  0.00     0.028 C 
ATOM     12  C   LIG d   1     -10.446  74.107 116.844  0.00  0.00     0.006 C 
ENDBRANCH   8  11
ENDBRANCH   7   8
ENDBRANCH   1   7
BRANCH   6  13
ATOM     13  N   LIG d   1      -5.182  75.791 117.691  0.00  0.00    -0.311 N 
ATOM     14  C   LIG d   1      -4.084  75.545 116.979  0.00  0.00     0.210 C 
ATOM     15  C   LIG d   1      -3.156  74.477 117.569  0.00  0.00     0.109 C 
ATOM     16  O   LIG d   1      -3.774  76.131 115.931  0.00  0.00    -0.276 OA
ATOM     17  H   LIG d   1      -5.338  75.292 118.545  0.00  0.00     0.149 HD
ENDBRANCH   6  13
BRANCH   5  18
ATOM     18  N   LIG d   1      -4.725  78.802 117.442  0.00  0.00     0.381 N 
ATOM     19  H   LIG d   1      -3.960  78.481 118.001  0.00  0.00    -0.090 HD
ATOM     20  H   LIG d   1      -4.801  79.797 117.553  0.00  0.00    -0.090 HD
ATOM     21  H   LIG d   1      -4.563  78.578 116.484  0.00  0.00    -0.090 HD
ENDBRANCH   5  18
BRANCH   3  22
ATOM     22  C   LIG d   1      -9.433  79.419 118.069  0.00  0.00     0.382 C 
ATOM     23  O   LIG d   1      -9.318  80.643 117.818  0.00  0.00    -0.241 OA
ATOM     24  O   LIG d   1     -10.467  79.001 118.625  0.00  0.00    -0.241 OA
ENDBRANCH   3  22
TORSDOF 7
ENDMDL
MODEL 2
REMARK VINA RESULT:      -5.6      2.973      5.858
REMARK  7 active torsions:
REMARK  status: ('A' for Active; 'I' for Inactive)
REMARK    1  A    between atoms: C_2  and  C_3 
REMARK    2  A    between atoms: C_3  and  O_6 
REMARK    3  A    between atoms: C_3  and  C_4 
REMARK    4  A    between atoms: C_7  and  O_6 
REMARK    5  A    between atoms: C_9  and  C_10 
REMARK    6  A    between atoms: N_15  and  C_14 
REMARK    7  A    between atoms: N_20  and  C_19 
REMARK       I    between atoms: C_22  and  N_20 
ROOT
ATOM      1  C   LIG d   1      -4.063  74.707 116.858  0.00  0.00     0.161 C 
ATOM      2  C   LIG d   1      -3.202  74.250 117.870  0.00  0.00     0.016 C 
ATOM      3  C   LIG d   1      -1.795  74.372 117.808  0.00  0.00     0.038 C 
ATOM      4  C   LIG d   1      -1.158  75.101 116.793  0.00  0.00     0.028 C 
ATOM      5  C   LIG d   1      -1.950  75.144 115.490  0.00  0.00    -0.047 C 
ATOM      6  C   LIG d   1      -3.394  75.604 115.796  0.00  0.00     0.091 C 
ENDROOT
BRANCH   1   7
ATOM      7  O   LIG d   1      -5.192  75.384 117.446  0.00  0.00    -0.368 OA
BRANCH   7   8
ATOM      8  C   LIG d   1      -6.369  74.573 117.683  0.00  0.00     0.119 C 
BRANCH   8   9
ATOM      9  C   LIG d   1      -6.830  74.017 116.322  0.00  0.00     0.028 C 
ATOM     10  C   LIG d   1      -7.248  72.539 116.403  0.00  0.00     0.006 C 
ENDBRANCH   8   9
BRANCH   8  11
ATOM     11  C   LIG d   1      -7.538  75.423 118.191  0.00  0.00     0.028 C 
ATOM     12  C   LIG d   1      -8.145  76.316 117.098  0.00  0.00     0.006 C 
ENDBRANCH   8  11
ENDBRANCH   7   8
ENDBRANCH   1   7
BRANCH   6  13
ATOM     13  N   LIG d   1      -4.260  75.593 114.588  0.00  0.00    -0.311 N 
ATOM     14  C   LIG d   1      -5.196  76.510 114.349  0.00  0.00     0.210 C 
ATOM     15  C   LIG d   1      -5.990  76.301 113.055  0.00  0.00     0.109 C 
ATOM     16  O   LIG d   1      -5.422  77.494 115.068  0.00  0.00    -0.276 OA
ATOM     17  H   LIG d   1      -4.123  74.846 113.935  0.00  0.00     0.149 HD
ENDBRANCH   6  13
BRANCH   5  18
ATOM     18  N   LIG d   1      -1.239  76.048 114.567  0.00  0.00     0.381 N 
ATOM     19  H   LIG d   1      -0.295  75.740 114.451  0.00  0.00    -0.090 HD
ATOM     20  H   LIG d   1      -1.223  76.971 114.963  0.00  0.00    -0.090 HD
ATOM     21  H   LIG d   1      -1.701  76.066 113.684  0.00  0.00    -0.090 HD
ENDBRANCH   5  18
BRANCH   3  22
ATOM     22  C   LIG d   1      -1.007  73.727 118.749  0.00  0.00     0.382 C 
ATOM     23  O   LIG d   1      -0.010  74.310 119.238  0.00  0.00    -0.241 OA
ATOM     24  O   LIG d   1      -1.256  72.553 119.083  0.00  0.00    -0.241 OA
ENDBRANCH   3  22
TORSDOF 7
ENDMDL
MODEL 3
REMARK VINA RESULT:      -5.6      1.958      2.682
REMARK  7 active torsions:
REMARK  status: ('A' for Active; 'I' for Inactive)
REMARK    1  A    between atoms: C_2  and  C_3 
REMARK    2  A    between atoms: C_3  and  O_6 
REMARK    3  A    between atoms: C_3  and  C_4 
REMARK    4  A    between atoms: C_7  and  O_6 
REMARK    5  A    between atoms: C_9  and  C_10 
REMARK    6  A    between atoms: N_15  and  C_14 
REMARK    7  A    between atoms: N_20  and  C_19 
REMARK       I    between atoms: C_22  and  N_20 
ROOT
ATOM      1  C   LIG d   1      -6.867  77.708 117.163  0.00  0.00     0.161 C 
ATOM      2  C   LIG d   1      -8.158  78.092 117.564  0.00  0.00     0.016 C 
ATOM      3  C   LIG d   1      -8.534  79.436 117.793  0.00  0.00     0.038 C 
ATOM      4  C   LIG d   1      -7.681  80.507 117.488  0.00  0.00     0.028 C 
ATOM      5  C   LIG d   1      -6.202  80.143 117.562  0.00  0.00    -0.047 C 
ATOM      6  C   LIG d   1      -5.955  78.871 116.719  0.00  0.00     0.091 C 
ENDROOT
BRANCH   1   7
ATOM      7  O   LIG d   1      -6.954  76.714 116.123  0.00  0.00    -0.368 OA
BRANCH   7   8
ATOM      8  C   LIG d   1      -6.311  75.445 116.399  0.00  0.00     0.119 C 
BRANCH   8   9
ATOM      9  C   LIG d   1      -5.731  74.922 115.071  0.00  0.00     0.028 C 
ATOM     10  C   LIG d   1      -5.688  76.007 113.981  0.00  0.00     0.006 C 
ENDBRANCH   8   9
BRANCH   8  11
ATOM     11  C   LIG d   1      -7.328  74.389 116.841  0.00  0.00     0.028 C 
ATOM     12  C   LIG d   1      -7.023  72.994 116.274  0.00  0.00     0.006 C 
ENDBRANCH   8  11
ENDBRANCH   7   8
ENDBRANCH   1   7
BRANCH   6  13
ATOM     13  N   LIG d   1      -4.549  78.397 116.805  0.00  0.00    -0.311 N 
ATOM     14  C   LIG d   1      -3.615  78.706 115.906  0.00  0.00     0.210 C 
ATOM     15  C   LIG d   1      -2.235  78.097 116.173  0.00  0.00     0.109 C 
ATOM     16  O   LIG d   1      -3.791  79.452 114.932  0.00  0.00    -0.276 OA
ATOM     17  H   LIG d   1      -4.311  77.812 117.581  0.00  0.00     0.149 HD
ENDBRANCH   6  13
BRANCH   5  18
ATOM     18  N   LIG d   1      -5.432  81.308 117.089  0.00  0.00     0.381 N 
ATOM     19  H   LIG d   1      -6.019  82.118 117.072  0.00  0.00    -0.090 HD
ATOM     20  H   LIG d   1      -5.113  81.129 116.153  0.00  0.00    -0.090 HD
ATOM     21  H   LIG d   1      -4.652  81.468 117.688  0.00  0.00    -0.090 HD
ENDBRANCH   5  18
BRANCH   3  22
ATOM     22  C   LIG d   1      -9.763  79.716 118.370  0.00  0.00     0.382 C 
ATOM     23  O   LIG d   1     -10.195  79.000 119.305  0.00  0.00    -0.241 OA
ATOM     24  O   LIG d   1     -10.466  80.650 117.938  0.00  0.00    -0.241 OA
ENDBRANCH   3  22
TORSDOF 7
ENDMDL
MODEL 4
REMARK VINA RESULT:      -5.3     13.578     15.702
REMARK  7 active torsions:
REMARK  status: ('A' for Active; 'I' for Inactive)
REMARK    1  A    between atoms: C_2  and  C_3 
REMARK    2  A    between atoms: C_3  and  O_6 
REMARK    3  A    between atoms: C_3  and  C_4 
REMARK    4  A    between atoms: C_7  and  O_6 
REMARK    5  A    between atoms: C_9  and  C_10 
REMARK    6  A    between atoms: N_15  and  C_14 
REMARK    7  A    between atoms: N_20  and  C_19 
REMARK       I    between atoms: C_22  and  N_20 
ROOT
ATOM      1  C   LIG d   1      -5.916  91.258 117.975  0.00  0.00     0.161 C 
ATOM      2  C   LIG d   1      -4.892  90.311 117.806  0.00  0.00     0.016 C 
ATOM      3  C   LIG d   1      -3.805  90.174 118.699  0.00  0.00     0.038 C 
ATOM      4  C   LIG d   1      -3.747  90.878 119.911  0.00  0.00     0.028 C 
ATOM      5  C   LIG d   1      -4.497  92.206 119.876  0.00  0.00    -0.047 C 
ATOM      6  C   LIG d   1      -5.929  91.959 119.349  0.00  0.00     0.091 C 
ENDROOT
BRANCH   1   7
ATOM      7  O   LIG d   1      -7.195  90.647 117.713  0.00  0.00    -0.368 OA
BRANCH   7   8
ATOM      8  C   LIG d   1      -7.284  89.846 116.508  0.00  0.00     0.119 C 
BRANCH   8   9
ATOM      9  C   LIG d   1      -7.578  90.803 115.337  0.00  0.00     0.028 C 
ATOM     10  C   LIG d   1      -6.427  90.853 114.318  0.00  0.00     0.006 C 
ENDBRANCH   8   9
BRANCH   8  11
ATOM     11  C   LIG d   1      -8.480  88.891 116.561  0.00  0.00     0.028 C 
ATOM     12  C   LIG d   1      -9.404  89.025 115.341  0.00  0.00     0.006 C 
ENDBRANCH   8  11
ENDBRANCH   7   8
ENDBRANCH   1   7
BRANCH   6  13
ATOM     13  N   LIG d   1      -6.704  93.219 119.204  0.00  0.00    -0.311 N 
ATOM     14  C   LIG d   1      -7.471  93.723 120.170  0.00  0.00     0.210 C 
ATOM     15  C   LIG d   1      -8.199  95.020 119.806  0.00  0.00     0.109 C 
ATOM     16  O   LIG d   1      -7.591  93.237 121.304  0.00  0.00    -0.276 OA
ATOM     17  H   LIG d   1      -6.640  93.696 118.326  0.00  0.00     0.149 HD
ENDBRANCH   6  13
BRANCH   5  18
ATOM     18  N   LIG d   1      -4.471  92.768 121.240  0.00  0.00     0.381 N 
ATOM     19  H   LIG d   1      -3.536  92.753 121.595  0.00  0.00    -0.090 HD
ATOM     20  H   LIG d   1      -5.044  92.198 121.837  0.00  0.00    -0.090 HD
ATOM     21  H   LIG d   1      -4.816  93.702 121.230  0.00  0.00    -0.090 HD
ENDBRANCH   5  18
BRANCH   3  22
ATOM     22  C   LIG d   1      -2.739  89.353 118.363  0.00  0.00     0.382 C 
ATOM     23  O   LIG d   1      -1.736  89.289 119.113  0.00  0.00    -0.241 OA
ATOM     24  O   LIG d   1      -2.750  88.709 117.297  0.00  0.00    -0.241 OA
ENDBRANCH   3  22
TORSDOF 7
ENDMDL
MODEL 5
REMARK VINA RESULT:      -5.3      2.481      4.996
REMARK  7 active torsions:
REMARK  status: ('A' for Active; 'I' for Inactive)
REMARK    1  A    between atoms: C_2  and  C_3 
REMARK    2  A    between atoms: C_3  and  O_6 
REMARK    3  A    between atoms: C_3  and  C_4 
REMARK    4  A    between atoms: C_7  and  O_6 
REMARK    5  A    between atoms: C_9  and  C_10 
REMARK    6  A    between atoms: N_15  and  C_14 
REMARK    7  A    between atoms: N_20  and  C_19 
REMARK       I    between atoms: C_22  and  N_20 
ROOT
ATOM      1  C   LIG d   1      -5.095  75.418 116.288  0.00  0.00     0.161 C 
ATOM      2  C   LIG d   1      -4.763  76.782 116.327  0.00  0.00     0.016 C 
ATOM      3  C   LIG d   1      -5.690  77.800 116.648  0.00  0.00     0.038 C 
ATOM      4  C   LIG d   1      -6.984  77.508 117.102  0.00  0.00     0.028 C 
ATOM      5  C   LIG d   1      -7.517  76.173 116.593  0.00  0.00    -0.047 C 
ATOM      6  C   LIG d   1      -6.474  75.071 116.888  0.00  0.00     0.091 C 
ENDROOT
BRANCH   1   7
ATOM      7  O   LIG d   1      -4.061  74.644 116.927  0.00  0.00    -0.368 OA
BRANCH   7   8
ATOM      8  C   LIG d   1      -2.835  75.351 117.237  0.00  0.00     0.119 C 
BRANCH   8   9
ATOM      9  C   LIG d   1      -1.700  74.680 116.442  0.00  0.00     0.028 C 
ATOM     10  C   LIG d   1      -1.641  75.162 114.982  0.00  0.00     0.006 C 
ENDBRANCH   8   9
BRANCH   8  11
ATOM     11  C   LIG d   1      -2.453  75.183 118.711  0.00  0.00     0.028 C 
ATOM     12  C   LIG d   1      -1.654  73.897 118.976  0.00  0.00     0.006 C 
ENDBRANCH   8  11
ENDBRANCH   7   8
ENDBRANCH   1   7
BRANCH   6  13
ATOM     13  N   LIG d   1      -6.879  73.747 116.347  0.00  0.00    -0.311 N 
ATOM     14  C   LIG d   1      -7.502  72.819 117.071  0.00  0.00     0.210 C 
ATOM     15  C   LIG d   1      -7.812  71.517 116.326  0.00  0.00     0.109 C 
ATOM     16  O   LIG d   1      -7.856  72.963 118.251  0.00  0.00    -0.276 OA
ATOM     17  H   LIG d   1      -6.659  73.559 115.389  0.00  0.00     0.149 HD
ENDBRANCH   6  13
BRANCH   5  18
ATOM     18  N   LIG d   1      -8.815  75.931 117.251  0.00  0.00     0.381 N 
ATOM     19  H   LIG d   1      -9.135  75.007 117.039  0.00  0.00    -0.090 HD
ATOM     20  H   LIG d   1      -9.487  76.587 116.896  0.00  0.00    -0.090 HD
ATOM     21  H   LIG d   1      -8.723  76.040 118.237  0.00  0.00    -0.090 HD
ENDBRANCH   5  18
BRANCH   3  22
ATOM     22  C   LIG d   1      -5.336  79.130 116.478  0.00  0.00     0.382 C 
ATOM     23  O   LIG d   1      -4.399  79.435 115.702  0.00  0.00    -0.241 OA
ATOM     24  O   LIG d   1      -5.913  80.025 117.124  0.00  0.00    -0.241 OA
ENDBRANCH   3  22
TORSDOF 7
ENDMDL
MODEL 6
REMARK VINA RESULT:      -5.3      3.549      5.797
REMARK  7 active torsions:
REMARK  status: ('A' for Active; 'I' for Inactive)
REMARK    1  A    between atoms: C_2  and  C_3 
REMARK    2  A    between atoms: C_3  and  O_6 
REMARK    3  A    between atoms: C_3  and  C_4 
REMARK    4  A    between atoms: C_7  and  O_6 
REMARK    5  A    between atoms: C_9  and  C_10 
REMARK    6  A    between atoms: N_15  and  C_14 
REMARK    7  A    between atoms: N_20  and  C_19 
REMARK       I    between atoms: C_22  and  N_20 
ROOT
ATOM      1  C   LIG d   1      -4.266  76.103 116.970  0.00  0.00     0.161 C 
ATOM      2  C   LIG d   1      -5.145  75.106 117.425  0.00  0.00     0.016 C 
ATOM      3  C   LIG d   1      -6.070  74.442 116.586  0.00  0.00     0.038 C 
ATOM      4  C   LIG d   1      -6.074  74.625 115.196  0.00  0.00     0.028 C 
ATOM      5  C   LIG d   1      -5.549  75.990 114.763  0.00  0.00    -0.047 C 
ATOM      6  C   LIG d   1      -4.179  76.237 115.435  0.00  0.00     0.091 C 
ENDROOT
BRANCH   1   7
ATOM      7  O   LIG d   1      -2.954  75.891 117.529  0.00  0.00    -0.368 OA
BRANCH   7   8
ATOM      8  C   LIG d   1      -2.255  74.703 117.082  0.00  0.00     0.119 C 
BRANCH   8   9
ATOM      9  C   LIG d   1      -1.771  73.952 118.337  0.00  0.00     0.028 C 
ATOM     10  C   LIG d   1      -0.545  74.619 118.984  0.00  0.00     0.006 C 
ENDBRANCH   8   9
BRANCH   8  11
ATOM     11  C   LIG d   1      -0.984  75.063 116.308  0.00  0.00     0.028 C 
ATOM     12  C   LIG d   1      -0.776  74.187 115.063  0.00  0.00     0.006 C 
ENDBRANCH   8  11
ENDBRANCH   7   8
ENDBRANCH   1   7
BRANCH   6  13
ATOM     13  N   LIG d   1      -3.634  77.586 115.132  0.00  0.00    -0.311 N 
ATOM     14  C   LIG d   1      -2.787  77.827 114.132  0.00  0.00     0.210 C 
ATOM     15  C   LIG d   1      -2.332  79.284 114.007  0.00  0.00     0.109 C 
ATOM     16  O   LIG d   1      -2.395  76.978 113.318  0.00  0.00    -0.276 OA
ATOM     17  H   LIG d   1      -3.924  78.339 115.724  0.00  0.00     0.149 HD
ENDBRANCH   6  13
BRANCH   5  18
ATOM     18  N   LIG d   1      -5.479  75.994 113.290  0.00  0.00     0.381 N 
ATOM     19  H   LIG d   1      -4.675  76.509 112.990  0.00  0.00    -0.090 HD
ATOM     20  H   LIG d   1      -6.298  76.450 112.927  0.00  0.00    -0.090 HD
ATOM     21  H   LIG d   1      -5.431  75.060 112.948  0.00  0.00    -0.090 HD
ENDBRANCH   5  18
BRANCH   3  22
ATOM     22  C   LIG d   1      -7.031  73.613 117.144  0.00  0.00     0.382 C 
ATOM     23  O   LIG d   1      -7.525  72.681 116.466  0.00  0.00    -0.241 OA
ATOM     24  O   LIG d   1      -7.442  73.813 118.303  0.00  0.00    -0.241 OA
ENDBRANCH   3  22
TORSDOF 7
ENDMDL
MODEL 7
REMARK VINA RESULT:      -5.2      2.167      5.140
REMARK  7 active torsions:
REMARK  status: ('A' for Active; 'I' for Inactive)
REMARK    1  A    between atoms: C_2  and  C_3 
REMARK    2  A    between atoms: C_3  and  O_6 
REMARK    3  A    between atoms: C_3  and  C_4 
REMARK    4  A    between atoms: C_7  and  O_6 
REMARK    5  A    between atoms: C_9  and  C_10 
REMARK    6  A    between atoms: N_15  and  C_14 
REMARK    7  A    between atoms: N_20  and  C_19 
REMARK       I    between atoms: C_22  and  N_20 
ROOT
ATOM      1  C   LIG d   1      -5.155  76.156 117.505  0.00  0.00     0.161 C 
ATOM      2  C   LIG d   1      -5.616  74.849 117.273  0.00  0.00     0.016 C 
ATOM      3  C   LIG d   1      -6.987  74.509 117.196  0.00  0.00     0.038 C 
ATOM      4  C   LIG d   1      -7.994  75.486 117.197  0.00  0.00     0.028 C 
ATOM      5  C   LIG d   1      -7.601  76.761 117.934  0.00  0.00    -0.047 C 
ATOM      6  C   LIG d   1      -6.237  77.251 117.397  0.00  0.00     0.091 C 
ENDROOT
BRANCH   1   7
ATOM      7  O   LIG d   1      -4.054  76.450 116.622  0.00  0.00    -0.368 OA
BRANCH   7   8
ATOM      8  C   LIG d   1      -3.926  75.597 115.458  0.00  0.00     0.119 C 
BRANCH   8   9
ATOM      9  C   LIG d   1      -2.432  75.256 115.297  0.00  0.00     0.028 C 
ATOM     10  C   LIG d   1      -1.788  74.798 116.616  0.00  0.00     0.006 C 
ENDBRANCH   8   9
BRANCH   8  11
ATOM     11  C   LIG d   1      -4.313  76.341 114.177  0.00  0.00     0.028 C 
ATOM     12  C   LIG d   1      -5.731  75.999 113.694  0.00  0.00     0.006 C 
ENDBRANCH   8  11
ENDBRANCH   7   8
ENDBRANCH   1   7
BRANCH   6  13
ATOM     13  N   LIG d   1      -5.738  78.448 118.124  0.00  0.00    -0.311 N 
ATOM     14  C   LIG d   1      -5.947  79.697 117.710  0.00  0.00     0.210 C 
ATOM     15  C   LIG d   1      -5.329  80.783 118.596  0.00  0.00     0.109 C 
ATOM     16  O   LIG d   1      -6.612  80.009 116.711  0.00  0.00    -0.276 OA
ATOM     17  H   LIG d   1      -5.215  78.288 118.962  0.00  0.00     0.149 HD
ENDBRANCH   6  13
BRANCH   5  18
ATOM     18  N   LIG d   1      -8.685  77.742 117.739  0.00  0.00     0.381 N 
ATOM     19  H   LIG d   1      -9.059  77.653 116.815  0.00  0.00    -0.090 HD
ATOM     20  H   LIG d   1      -8.308  78.668 117.839  0.00  0.00    -0.090 HD
ATOM     21  H   LIG d   1      -9.405  77.593 118.412  0.00  0.00    -0.090 HD
ENDBRANCH   5  18
BRANCH   3  22
ATOM     22  C   LIG d   1      -7.363  73.175 117.158  0.00  0.00     0.382 C 
ATOM     23  O   LIG d   1      -7.200  72.508 116.108  0.00  0.00    -0.241 OA
ATOM     24  O   LIG d   1      -7.903  72.643 118.146  0.00  0.00    -0.241 OA
ENDBRANCH   3  22
TORSDOF 7
ENDMDL
MODEL 8
REMARK VINA RESULT:      -5.0      2.933      4.890
REMARK  7 active torsions:
REMARK  status: ('A' for Active; 'I' for Inactive)
REMARK    1  A    between atoms: C_2  and  C_3 
REMARK    2  A    between atoms: C_3  and  O_6 
REMARK    3  A    between atoms: C_3  and  C_4 
REMARK    4  A    between atoms: C_7  and  O_6 
REMARK    5  A    between atoms: C_9  and  C_10 
REMARK    6  A    between atoms: N_15  and  C_14 
REMARK    7  A    between atoms: N_20  and  C_19 
REMARK       I    between atoms: C_22  and  N_20 
ROOT
ATOM      1  C   LIG d   1      -5.663  79.086 117.057  0.00  0.00     0.161 C 
ATOM      2  C   LIG d   1      -6.908  78.446 117.169  0.00  0.00     0.016 C 
ATOM      3  C   LIG d   1      -8.068  79.082 117.671  0.00  0.00     0.038 C 
ATOM      4  C   LIG d   1      -8.096  80.455 117.955  0.00  0.00     0.028 C 
ATOM      5  C   LIG d   1      -6.733  81.023 118.335  0.00  0.00    -0.047 C 
ATOM      6  C   LIG d   1      -5.702  80.616 117.258  0.00  0.00     0.091 C 
ENDROOT
BRANCH   1   7
ATOM      7  O   LIG d   1      -5.060  78.763 115.789  0.00  0.00    -0.368 OA
BRANCH   7   8
ATOM      8  C   LIG d   1      -3.902  77.893 115.837  0.00  0.00     0.119 C 
BRANCH   8   9
ATOM      9  C   LIG d   1      -4.331  76.520 115.284  0.00  0.00     0.028 C 
ATOM     10  C   LIG d   1      -4.561  75.484 116.398  0.00  0.00     0.006 C 
ENDBRANCH   8   9
BRANCH   8  11
ATOM     11  C   LIG d   1      -3.463  77.629 117.281  0.00  0.00     0.028 C 
ATOM     12  C   LIG d   1      -2.048  78.149 117.577  0.00  0.00     0.006 C 
ENDBRANCH   8  11
ENDBRANCH   7   8
ENDBRANCH   1   7
BRANCH   6  13
ATOM     13  N   LIG d   1      -4.324  81.060 117.595  0.00  0.00    -0.311 N 
ATOM     14  C   LIG d   1      -3.488  81.596 116.708  0.00  0.00     0.210 C 
ATOM     15  C   LIG d   1      -2.108  81.966 117.260  0.00  0.00     0.109 C 
ATOM     16  O   LIG d   1      -3.770  81.830 115.523  0.00  0.00    -0.276 OA
ATOM     17  H   LIG d   1      -4.024  80.936 118.543  0.00  0.00     0.149 HD
ENDBRANCH   6  13
BRANCH   5  18
ATOM     18  N   LIG d   1      -6.881  82.485 118.470  0.00  0.00     0.381 N 
ATOM     19  H   LIG d   1      -7.747  82.776 118.062  0.00  0.00    -0.090 HD
ATOM     20  H   LIG d   1      -6.132  82.935 117.974  0.00  0.00    -0.090 HD
ATOM     21  H   LIG d   1      -6.855  82.743 119.432  0.00  0.00    -0.090 HD
ENDBRANCH   5  18
BRANCH   3  22
ATOM     22  C   LIG d   1      -9.205  78.332 117.930  0.00  0.00     0.382 C 
ATOM     23  O   LIG d   1      -9.206  77.097 117.706  0.00  0.00    -0.241 OA
ATOM     24  O   LIG d   1     -10.243  78.881 118.344  0.00  0.00    -0.241 OA
ENDBRANCH   3  22
TORSDOF 7
ENDMDL
MODEL 9
REMARK VINA RESULT:      -5.0     14.824     17.181
REMARK  7 active torsions:
REMARK  status: ('A' for Active; 'I' for Inactive)
REMARK    1  A    between atoms: C_2  and  C_3 
REMARK    2  A    between atoms: C_3  and  O_6 
REMARK    3  A    between atoms: C_3  and  C_4 
REMARK    4  A    between atoms: C_7  and  O_6 
REMARK    5  A    between atoms: C_9  and  C_10 
REMARK    6  A    between atoms: N_15  and  C_14 
REMARK    7  A    between atoms: N_20  and  C_19 
REMARK       I    between atoms: C_22  and  N_20 
ROOT
ATOM      1  C   LIG d   1       3.617  89.455 116.073  0.00  0.00     0.161 C 
ATOM      2  C   LIG d   1       4.083  90.615 116.715  0.00  0.00     0.016 C 
ATOM      3  C   LIG d   1       3.238  91.514 117.406  0.00  0.00     0.038 C 
ATOM      4  C   LIG d   1       1.882  91.234 117.631  0.00  0.00     0.028 C 
ATOM      5  C   LIG d   1       1.267  90.328 116.571  0.00  0.00    -0.047 C 
ATOM      6  C   LIG d   1       2.158  89.075 116.403  0.00  0.00     0.091 C 
ENDROOT
BRANCH   1   7
ATOM      7  O   LIG d   1       4.498  88.351 116.358  0.00  0.00    -0.368 OA
BRANCH   7   8
ATOM      8  C   LIG d   1       5.157  87.751 115.216  0.00  0.00     0.119 C 
BRANCH   8   9
ATOM      9  C   LIG d   1       5.667  86.364 115.652  0.00  0.00     0.028 C 
ATOM     10  C   LIG d   1       4.798  85.220 115.103  0.00  0.00     0.006 C 
ENDBRANCH   8   9
BRANCH   8  11
ATOM     11  C   LIG d   1       6.410  88.537 114.819  0.00  0.00     0.028 C 
ATOM     12  C   LIG d   1       6.344  89.077 113.382  0.00  0.00     0.006 C 
ENDBRANCH   8  11
ENDBRANCH   7   8
ENDBRANCH   1   7
BRANCH   6  13
ATOM     13  N   LIG d   1       1.673  88.175 115.324  0.00  0.00    -0.311 N 
ATOM     14  C   LIG d   1       1.509  86.863 115.483  0.00  0.00     0.210 C 
ATOM     15  C   LIG d   1       1.019  86.117 114.238  0.00  0.00     0.109 C 
ATOM     16  O   LIG d   1       1.692  86.251 116.546  0.00  0.00    -0.276 OA
ATOM     17  H   LIG d   1       1.470  88.594 114.438  0.00  0.00     0.149 HD
ENDBRANCH   6  13
BRANCH   5  18
ATOM     18  N   LIG d   1      -0.107  90.006 117.002  0.00  0.00     0.381 N 
ATOM     19  H   LIG d   1      -0.494  90.780 117.503  0.00  0.00    -0.090 HD
ATOM     20  H   LIG d   1      -0.077  89.214 117.619  0.00  0.00    -0.090 HD
ATOM     21  H   LIG d   1      -0.673  89.798 116.209  0.00  0.00    -0.090 HD
ENDBRANCH   5  18
BRANCH   3  22
ATOM     22  C   LIG d   1       3.742  92.730 117.845  0.00  0.00     0.382 C 
ATOM     23  O   LIG d   1       4.072  93.609 117.013  0.00  0.00    -0.241 OA
ATOM     24  O   LIG d   1       3.911  92.941 119.061  0.00  0.00    -0.241 OA
ENDBRANCH   3  22
TORSDOF 7
ENDMDL
