MODEL 1
REMARK VINA RESULT:      -5.7      0.000      0.000
REMARK  7 active torsions:
REMARK  status: ('A' for Active; 'I' for Inactive)
REMARK    1  A    between atoms: C_2  and  C_3 
REMARK    2  A    between atoms: C_3  and  O_6 
REMARK    3  A    between atoms: C_3  and  C_4 
REMARK    4  A    between atoms: C_7  and  O_6 
REMARK    5  A    between atoms: C_9  and  C_10 
REMARK    6  A    between atoms: N_15  and  C_14 
REMARK    7  A    between atoms: N_20  and  C_19 
REMARK       I    between atoms: C_22  and  N_20 
ROOT
ATOM      1  C   LIG d   1      -6.922  77.251 116.958  0.00  0.00     0.161 C 
ATOM      2  C   LIG d   1      -8.198  77.685 117.356  0.00  0.00     0.016 C 
ATOM      3  C   LIG d   1      -8.492  79.024 117.702  0.00  0.00     0.038 C 
ATOM      4  C   LIG d   1      -7.560  80.057 117.526  0.00  0.00     0.028 C 
ATOM      5  C   LIG d   1      -6.112  79.586 117.608  0.00  0.00    -0.047 C 
ATOM      6  C   LIG d   1      -5.920  78.385 116.654  0.00  0.00     0.091 C 
ENDROOT
BRANCH   1   7
ATOM      7  O   LIG d   1      -7.037  76.367 115.826  0.00  0.00    -0.368 OA
BRANCH   7   8
ATOM      8  C   LIG d   1      -6.442  75.055 115.978  0.00  0.00     0.119 C 
BRANCH   8   9
ATOM      9  C   LIG d   1      -5.772  74.692 114.639  0.00  0.00     0.028 C 
ATOM     10  C   LIG d   1      -5.588  75.915 113.725  0.00  0.00     0.006 C 
ENDBRANCH   8   9
BRANCH   8  11
ATOM     11  C   LIG d   1      -7.511  73.981 116.201  0.00  0.00     0.028 C 
ATOM     12  C   LIG d   1      -7.110  72.613 115.626  0.00  0.00     0.006 C 
ENDBRANCH   8  11
ENDBRANCH   7   8
ENDBRANCH   1   7
BRANCH   6  13
ATOM     13  N   LIG d   1      -4.552  77.809 116.735  0.00  0.00    -0.311 N 
ATOM     14  C   LIG d   1      -3.566  78.144 115.905  0.00  0.00     0.210 C 
ATOM     15  C   LIG d   1      -2.239  77.417 116.151  0.00  0.00     0.109 C 
ATOM     16  O   LIG d   1      -3.654  78.997 115.010  0.00  0.00    -0.276 OA
ATOM     17  H   LIG d   1      -4.384  77.132 117.453  0.00  0.00     0.149 HD
ENDBRANCH   6  13
BRANCH   5  18
ATOM     18  N   LIG d   1      -5.250  80.735 117.271  0.00  0.00     0.381 N 
ATOM     19  H   LIG d   1      -4.572  80.873 117.994  0.00  0.00    -0.090 HD
ATOM     20  H   LIG d   1      -5.819  81.561 117.210  0.00  0.00    -0.090 HD
ATOM     21  H   LIG d   1      -4.791  80.573 116.402  0.00  0.00    -0.090 HD
ENDBRANCH   5  18
BRANCH   3  22
ATOM     22  C   LIG d   1      -9.720  79.333 118.267  0.00  0.00     0.382 C 
ATOM     23  O   LIG d   1      -9.835  80.344 119.001  0.00  0.00    -0.241 OA
ATOM     24  O   LIG d   1     -10.703  78.590 118.088  0.00  0.00    -0.241 OA
ENDBRANCH   3  22
TORSDOF 7
ENDMDL
MODEL 2
REMARK VINA RESULT:      -5.6      2.028      3.088
REMARK  7 active torsions:
REMARK  status: ('A' for Active; 'I' for Inactive)
REMARK    1  A    between atoms: C_2  and  C_3 
REMARK    2  A    between atoms: C_3  and  O_6 
REMARK    3  A    between atoms: C_3  and  C_4 
REMARK    4  A    between atoms: C_7  and  O_6 
REMARK    5  A    between atoms: C_9  and  C_10 
REMARK    6  A    between atoms: N_15  and  C_14 
REMARK    7  A    between atoms: N_20  and  C_19 
REMARK       I    between atoms: C_22  and  N_20 
ROOT
ATOM      1  C   LIG d   1      -6.450  79.612 117.646  0.00  0.00     0.161 C 
ATOM      2  C   LIG d   1      -7.779  79.213 117.865  0.00  0.00     0.016 C 
ATOM      3  C   LIG d   1      -8.809  80.107 118.237  0.00  0.00     0.038 C 
ATOM      4  C   LIG d   1      -8.610  81.495 118.268  0.00  0.00     0.028 C 
ATOM      5  C   LIG d   1      -7.165  81.894 118.546  0.00  0.00    -0.047 C 
ATOM      6  C   LIG d   1      -6.238  81.139 117.566  0.00  0.00     0.091 C 
ENDROOT
BRANCH   1   7
ATOM      7  O   LIG d   1      -5.936  78.973 116.460  0.00  0.00    -0.368 OA
BRANCH   7   8
ATOM      8  C   LIG d   1      -5.405  77.637 116.636  0.00  0.00     0.119 C 
BRANCH   8   9
ATOM      9  C   LIG d   1      -3.950  77.647 116.128  0.00  0.00     0.028 C 
ATOM     10  C   LIG d   1      -2.973  78.238 117.157  0.00  0.00     0.006 C 
ENDBRANCH   8   9
BRANCH   8  11
ATOM     11  C   LIG d   1      -6.137  76.625 115.750  0.00  0.00     0.028 C 
ATOM     12  C   LIG d   1      -7.232  75.855 116.504  0.00  0.00     0.006 C 
ENDBRANCH   8  11
ENDBRANCH   7   8
ENDBRANCH   1   7
BRANCH   6  13
ATOM     13  N   LIG d   1      -4.800  81.408 117.825  0.00  0.00    -0.311 N 
ATOM     14  C   LIG d   1      -3.972  81.911 116.911  0.00  0.00     0.210 C 
ATOM     15  C   LIG d   1      -2.525  82.092 117.380  0.00  0.00     0.109 C 
ATOM     16  O   LIG d   1      -4.306  82.255 115.768  0.00  0.00    -0.276 OA
ATOM     17  H   LIG d   1      -4.452  81.187 118.738  0.00  0.00     0.149 HD
ENDBRANCH   6  13
BRANCH   5  18
ATOM     18  N   LIG d   1      -7.075  83.361 118.414  0.00  0.00     0.381 N 
ATOM     19  H   LIG d   1      -7.780  83.796 118.975  0.00  0.00    -0.090 HD
ATOM     20  H   LIG d   1      -7.236  83.611 117.454  0.00  0.00    -0.090 HD
ATOM     21  H   LIG d   1      -6.173  83.674 118.699  0.00  0.00    -0.090 HD
ENDBRANCH   5  18
BRANCH   3  22
ATOM     22  C   LIG d   1     -10.045  79.609 118.622  0.00  0.00     0.382 C 
ATOM     23  O   LIG d   1     -10.632  78.765 117.903  0.00  0.00    -0.241 OA
ATOM     24  O   LIG d   1     -10.600  80.027 119.656  0.00  0.00    -0.241 OA
ENDBRANCH   3  22
TORSDOF 7
ENDMDL
MODEL 3
REMARK VINA RESULT:      -5.6     12.075     14.193
REMARK  7 active torsions:
REMARK  status: ('A' for Active; 'I' for Inactive)
REMARK    1  A    between atoms: C_2  and  C_3 
REMARK    2  A    between atoms: C_3  and  O_6 
REMARK    3  A    between atoms: C_3  and  C_4 
REMARK    4  A    between atoms: C_7  and  O_6 
REMARK    5  A    between atoms: C_9  and  C_10 
REMARK    6  A    between atoms: N_15  and  C_14 
REMARK    7  A    between atoms: N_20  and  C_19 
REMARK       I    between atoms: C_22  and  N_20 
ROOT
ATOM      1  C   LIG d   1       1.542  88.781 115.768  0.00  0.00     0.161 C 
ATOM      2  C   LIG d   1       0.245  88.923 116.288  0.00  0.00     0.016 C 
ATOM      3  C   LIG d   1      -0.152  90.008 117.104  0.00  0.00     0.038 C 
ATOM      4  C   LIG d   1       0.687  91.109 117.333  0.00  0.00     0.028 C 
ATOM      5  C   LIG d   1       2.171  90.769 117.245  0.00  0.00    -0.047 C 
ATOM      6  C   LIG d   1       2.438  90.029 115.915  0.00  0.00     0.091 C 
ENDROOT
BRANCH   1   7
ATOM      7  O   LIG d   1       1.473  88.374 114.387  0.00  0.00    -0.368 OA
BRANCH   7   8
ATOM      8  C   LIG d   1       1.922  87.027 114.096  0.00  0.00     0.119 C 
BRANCH   8   9
ATOM      9  C   LIG d   1       0.681  86.198 113.714  0.00  0.00     0.028 C 
ATOM     10  C   LIG d   1       0.978  84.690 113.655  0.00  0.00     0.006 C 
ENDBRANCH   8   9
BRANCH   8  11
ATOM     11  C   LIG d   1       2.494  86.349 115.345  0.00  0.00     0.028 C 
ATOM     12  C   LIG d   1       3.989  86.016 115.209  0.00  0.00     0.006 C 
ENDBRANCH   8  11
ENDBRANCH   7   8
ENDBRANCH   1   7
BRANCH   6  13
ATOM     13  N   LIG d   1       3.851  89.585 115.787  0.00  0.00    -0.311 N 
ATOM     14  C   LIG d   1       4.564  89.720 114.670  0.00  0.00     0.210 C 
ATOM     15  C   LIG d   1       5.994  89.178 114.746  0.00  0.00     0.109 C 
ATOM     16  O   LIG d   1       4.157  90.267 113.634  0.00  0.00    -0.276 OA
ATOM     17  H   LIG d   1       4.270  89.159 116.590  0.00  0.00     0.149 HD
ENDBRANCH   6  13
BRANCH   5  18
ATOM     18  N   LIG d   1       2.925  92.031 117.366  0.00  0.00     0.381 N 
ATOM     19  H   LIG d   1       3.147  92.202 118.327  0.00  0.00    -0.090 HD
ATOM     20  H   LIG d   1       2.351  92.786 117.036  0.00  0.00    -0.090 HD
ATOM     21  H   LIG d   1       3.762  91.981 116.828  0.00  0.00    -0.090 HD
ENDBRANCH   5  18
BRANCH   3  22
ATOM     22  C   LIG d   1      -1.386  89.978 117.734  0.00  0.00     0.382 C 
ATOM     23  O   LIG d   1      -2.343  89.360 117.209  0.00  0.00    -0.241 OA
ATOM     24  O   LIG d   1      -1.567  90.599 118.799  0.00  0.00    -0.241 OA
ENDBRANCH   3  22
TORSDOF 7
ENDMDL
MODEL 4
REMARK VINA RESULT:      -5.0      2.742      5.590
REMARK  7 active torsions:
REMARK  status: ('A' for Active; 'I' for Inactive)
REMARK    1  A    between atoms: C_2  and  C_3 
REMARK    2  A    between atoms: C_3  and  O_6 
REMARK    3  A    between atoms: C_3  and  C_4 
REMARK    4  A    between atoms: C_7  and  O_6 
REMARK    5  A    between atoms: C_9  and  C_10 
REMARK    6  A    between atoms: N_15  and  C_14 
REMARK    7  A    between atoms: N_20  and  C_19 
REMARK       I    between atoms: C_22  and  N_20 
ROOT
ATOM      1  C   LIG d   1      -6.816  79.748 117.687  0.00  0.00     0.161 C 
ATOM      2  C   LIG d   1      -7.117  78.480 117.162  0.00  0.00     0.016 C 
ATOM      3  C   LIG d   1      -8.400  77.891 117.239  0.00  0.00     0.038 C 
ATOM      4  C   LIG d   1      -9.513  78.599 117.716  0.00  0.00     0.028 C 
ATOM      5  C   LIG d   1      -9.153  79.691 118.717  0.00  0.00    -0.047 C 
ATOM      6  C   LIG d   1      -8.043  80.581 118.112  0.00  0.00     0.091 C 
ENDROOT
BRANCH   1   7
ATOM      7  O   LIG d   1      -6.010  80.487 116.748  0.00  0.00    -0.368 OA
BRANCH   7   8
ATOM      8  C   LIG d   1      -4.605  80.619 117.079  0.00  0.00     0.119 C 
BRANCH   8   9
ATOM      9  C   LIG d   1      -4.321  82.117 117.302  0.00  0.00     0.028 C 
ATOM     10  C   LIG d   1      -3.954  82.434 118.761  0.00  0.00     0.006 C 
ENDBRANCH   8   9
BRANCH   8  11
ATOM     11  C   LIG d   1      -3.715  80.209 115.902  0.00  0.00     0.028 C 
ATOM     12  C   LIG d   1      -3.386  78.707 115.900  0.00  0.00     0.006 C 
ENDBRANCH   8  11
ENDBRANCH   7   8
ENDBRANCH   1   7
BRANCH   6  13
ATOM     13  N   LIG d   1      -7.573  81.624 119.061  0.00  0.00    -0.311 N 
ATOM     14  C   LIG d   1      -7.846  82.920 118.919  0.00  0.00     0.210 C 
ATOM     15  C   LIG d   1      -7.248  83.828 119.998  0.00  0.00     0.109 C 
ATOM     16  O   LIG d   1      -8.554  83.399 118.021  0.00  0.00    -0.276 OA
ATOM     17  H   LIG d   1      -7.018  81.319 119.836  0.00  0.00     0.149 HD
ENDBRANCH   6  13
BRANCH   5  18
ATOM     18  N   LIG d   1     -10.388  80.437 119.026  0.00  0.00     0.381 N 
ATOM     19  H   LIG d   1     -10.877  79.987 119.774  0.00  0.00    -0.090 HD
ATOM     20  H   LIG d   1     -10.981  80.434 118.215  0.00  0.00    -0.090 HD
ATOM     21  H   LIG d   1     -10.166  81.374 119.281  0.00  0.00    -0.090 HD
ENDBRANCH   5  18
BRANCH   3  22
ATOM     22  C   LIG d   1      -8.570  76.565 116.872  0.00  0.00     0.382 C 
ATOM     23  O   LIG d   1      -7.568  75.829 116.700  0.00  0.00    -0.241 OA
ATOM     24  O   LIG d   1      -9.710  76.107 116.668  0.00  0.00    -0.241 OA
ENDBRANCH   3  22
TORSDOF 7
ENDMDL
MODEL 5
REMARK VINA RESULT:      -5.0      2.548      6.450
REMARK  7 active torsions:
REMARK  status: ('A' for Active; 'I' for Inactive)
REMARK    1  A    between atoms: C_2  and  C_3 
REMARK    2  A    between atoms: C_3  and  O_6 
REMARK    3  A    between atoms: C_3  and  C_4 
REMARK    4  A    between atoms: C_7  and  O_6 
REMARK    5  A    between atoms: C_9  and  C_10 
REMARK    6  A    between atoms: N_15  and  C_14 
REMARK    7  A    between atoms: N_20  and  C_19 
REMARK       I    between atoms: C_22  and  N_20 
ROOT
ATOM      1  C   LIG d   1      -4.679  78.542 116.462  0.00  0.00     0.161 C 
ATOM      2  C   LIG d   1      -4.104  77.697 115.499  0.00  0.00     0.016 C 
ATOM      3  C   LIG d   1      -4.762  76.566 114.963  0.00  0.00     0.038 C 
ATOM      4  C   LIG d   1      -6.108  76.289 115.246  0.00  0.00     0.028 C 
ATOM      5  C   LIG d   1      -6.566  76.825 116.599  0.00  0.00    -0.047 C 
ATOM      6  C   LIG d   1      -6.187  78.320 116.700  0.00  0.00     0.091 C 
ENDROOT
BRANCH   1   7
ATOM      7  O   LIG d   1      -4.424  79.919 116.119  0.00  0.00    -0.368 OA
BRANCH   7   8
ATOM      8  C   LIG d   1      -3.518  80.636 116.993  0.00  0.00     0.119 C 
BRANCH   8   9
ATOM      9  C   LIG d   1      -4.225  81.936 117.426  0.00  0.00     0.028 C 
ATOM     10  C   LIG d   1      -3.839  82.368 118.850  0.00  0.00     0.006 C 
ENDBRANCH   8   9
BRANCH   8  11
ATOM     11  C   LIG d   1      -2.261  81.088 116.244  0.00  0.00     0.028 C 
ATOM     12  C   LIG d   1      -2.555  82.153 115.176  0.00  0.00     0.006 C 
ENDBRANCH   8  11
ENDBRANCH   7   8
ENDBRANCH   1   7
BRANCH   6  13
ATOM     13  N   LIG d   1      -6.524  78.901 118.026  0.00  0.00    -0.311 N 
ATOM     14  C   LIG d   1      -7.242  80.012 118.178  0.00  0.00     0.210 C 
ATOM     15  C   LIG d   1      -7.457  80.450 119.630  0.00  0.00     0.109 C 
ATOM     16  O   LIG d   1      -7.750  80.659 117.249  0.00  0.00    -0.276 OA
ATOM     17  H   LIG d   1      -6.178  78.423 118.835  0.00  0.00     0.149 HD
ENDBRANCH   6  13
BRANCH   5  18
ATOM     18  N   LIG d   1      -8.018  76.587 116.704  0.00  0.00     0.381 N 
ATOM     19  H   LIG d   1      -8.498  77.460 116.792  0.00  0.00    -0.090 HD
ATOM     20  H   LIG d   1      -8.199  76.043 117.529  0.00  0.00    -0.090 HD
ATOM     21  H   LIG d   1      -8.343  76.101 115.898  0.00  0.00    -0.090 HD
ENDBRANCH   5  18
BRANCH   3  22
ATOM     22  C   LIG d   1      -4.060  75.676 114.166  0.00  0.00     0.382 C 
ATOM     23  O   LIG d   1      -4.679  74.876 113.423  0.00  0.00    -0.241 OA
ATOM     24  O   LIG d   1      -2.816  75.631 114.212  0.00  0.00    -0.241 OA
ENDBRANCH   3  22
TORSDOF 7
ENDMDL
MODEL 6
REMARK VINA RESULT:      -4.6      2.241      3.916
REMARK  7 active torsions:
REMARK  status: ('A' for Active; 'I' for Inactive)
REMARK    1  A    between atoms: C_2  and  C_3 
REMARK    2  A    between atoms: C_3  and  O_6 
REMARK    3  A    between atoms: C_3  and  C_4 
REMARK    4  A    between atoms: C_7  and  O_6 
REMARK    5  A    between atoms: C_9  and  C_10 
REMARK    6  A    between atoms: N_15  and  C_14 
REMARK    7  A    between atoms: N_20  and  C_19 
REMARK       I    between atoms: C_22  and  N_20 
ROOT
ATOM      1  C   LIG d   1      -4.715  78.311 116.404  0.00  0.00     0.161 C 
ATOM      2  C   LIG d   1      -5.728  77.352 116.244  0.00  0.00     0.016 C 
ATOM      3  C   LIG d   1      -7.043  77.518 116.737  0.00  0.00     0.038 C 
ATOM      4  C   LIG d   1      -7.476  78.730 117.297  0.00  0.00     0.028 C 
ATOM      5  C   LIG d   1      -6.352  79.540 117.933  0.00  0.00    -0.047 C 
ATOM      6  C   LIG d   1      -5.199  79.685 116.913  0.00  0.00     0.091 C 
ENDROOT
BRANCH   1   7
ATOM      7  O   LIG d   1      -3.986  78.463 115.169  0.00  0.00    -0.368 OA
BRANCH   7   8
ATOM      8  C   LIG d   1      -2.618  77.988 115.174  0.00  0.00     0.119 C 
BRANCH   8   9
ATOM      9  C   LIG d   1      -1.779  78.985 114.351  0.00  0.00     0.028 C 
ATOM     10  C   LIG d   1      -2.628  80.130 113.773  0.00  0.00     0.006 C 
ENDBRANCH   8   9
BRANCH   8  11
ATOM     11  C   LIG d   1      -2.490  76.649 114.442  0.00  0.00     0.028 C 
ATOM     12  C   LIG d   1      -2.287  75.463 115.398  0.00  0.00     0.006 C 
ENDBRANCH   8  11
ENDBRANCH   7   8
ENDBRANCH   1   7
BRANCH   6  13
ATOM     13  N   LIG d   1      -4.023  80.393 117.484  0.00  0.00    -0.311 N 
ATOM     14  C   LIG d   1      -3.596  81.576 117.045  0.00  0.00     0.210 C 
ATOM     15  C   LIG d   1      -2.355  82.120 117.759  0.00  0.00     0.109 C 
ATOM     16  O   LIG d   1      -4.147  82.241 116.155  0.00  0.00    -0.276 OA
ATOM     17  H   LIG d   1      -3.536  79.939 118.231  0.00  0.00     0.149 HD
ENDBRANCH   6  13
BRANCH   5  18
ATOM     18  N   LIG d   1      -6.918  80.836 118.352  0.00  0.00     0.381 N 
ATOM     19  H   LIG d   1      -7.001  80.863 119.349  0.00  0.00    -0.090 HD
ATOM     20  H   LIG d   1      -7.837  80.932 117.956  0.00  0.00    -0.090 HD
ATOM     21  H   LIG d   1      -6.335  81.580 118.040  0.00  0.00    -0.090 HD
ENDBRANCH   5  18
BRANCH   3  22
ATOM     22  C   LIG d   1      -7.928  76.451 116.710  0.00  0.00     0.382 C 
ATOM     23  O   LIG d   1      -9.164  76.663 116.711  0.00  0.00    -0.241 OA
ATOM     24  O   LIG d   1      -7.505  75.280 116.728  0.00  0.00    -0.241 OA
ENDBRANCH   3  22
TORSDOF 7
ENDMDL
MODEL 7
REMARK VINA RESULT:      -4.6      3.092      4.548
REMARK  7 active torsions:
REMARK  status: ('A' for Active; 'I' for Inactive)
REMARK    1  A    between atoms: C_2  and  C_3 
REMARK    2  A    between atoms: C_3  and  O_6 
REMARK    3  A    between atoms: C_3  and  C_4 
REMARK    4  A    between atoms: C_7  and  O_6 
REMARK    5  A    between atoms: C_9  and  C_10 
REMARK    6  A    between atoms: N_15  and  C_14 
REMARK    7  A    between atoms: N_20  and  C_19 
REMARK       I    between atoms: C_22  and  N_20 
ROOT
ATOM      1  C   LIG d   1      -2.957  77.840 116.302  0.00  0.00     0.161 C 
ATOM      2  C   LIG d   1      -3.791  78.908 116.672  0.00  0.00     0.016 C 
ATOM      3  C   LIG d   1      -3.581  80.241 116.251  0.00  0.00     0.038 C 
ATOM      4  C   LIG d   1      -2.603  80.574 115.302  0.00  0.00     0.028 C 
ATOM      5  C   LIG d   1      -1.420  79.612 115.289  0.00  0.00    -0.047 C 
ATOM      6  C   LIG d   1      -1.951  78.164 115.178  0.00  0.00     0.091 C 
ENDROOT
BRANCH   1   7
ATOM      7  O   LIG d   1      -3.758  76.697 115.942  0.00  0.00    -0.368 OA
BRANCH   7   8
ATOM      8  C   LIG d   1      -4.907  76.963 115.100  0.00  0.00     0.119 C 
BRANCH   8   9
ATOM      9  C   LIG d   1      -6.130  76.301 115.764  0.00  0.00     0.028 C 
ATOM     10  C   LIG d   1      -7.093  77.331 116.379  0.00  0.00     0.006 C 
ENDBRANCH   8   9
BRANCH   8  11
ATOM     11  C   LIG d   1      -4.767  76.281 113.736  0.00  0.00     0.028 C 
ATOM     12  C   LIG d   1      -4.885  74.751 113.819  0.00  0.00     0.006 C 
ENDBRANCH   8  11
ENDBRANCH   7   8
ENDBRANCH   1   7
BRANCH   6  13
ATOM     13  N   LIG d   1      -0.863  77.155 115.243  0.00  0.00    -0.311 N 
ATOM     14  C   LIG d   1      -0.587  76.309 114.252  0.00  0.00     0.210 C 
ATOM     15  C   LIG d   1       0.563  75.336 114.533  0.00  0.00     0.109 C 
ATOM     16  O   LIG d   1      -1.163  76.294 113.154  0.00  0.00    -0.276 OA
ATOM     17  H   LIG d   1      -0.324  77.118 116.086  0.00  0.00     0.149 HD
ENDBRANCH   6  13
BRANCH   5  18
ATOM     18  N   LIG d   1      -0.546  79.995 114.165  0.00  0.00     0.381 N 
ATOM     19  H   LIG d   1      -0.309  79.185 113.628  0.00  0.00    -0.090 HD
ATOM     20  H   LIG d   1       0.302  80.390 114.532  0.00  0.00    -0.090 HD
ATOM     21  H   LIG d   1      -1.008  80.662 113.586  0.00  0.00    -0.090 HD
ENDBRANCH   5  18
BRANCH   3  22
ATOM     22  C   LIG d   1      -4.329  81.265 116.812  0.00  0.00     0.382 C 
ATOM     23  O   LIG d   1      -3.753  82.253 117.328  0.00  0.00    -0.241 OA
ATOM     24  O   LIG d   1      -5.572  81.192 116.849  0.00  0.00    -0.241 OA
ENDBRANCH   3  22
TORSDOF 7
ENDMDL
MODEL 8
REMARK VINA RESULT:      -4.6     13.633     16.480
REMARK  7 active torsions:
REMARK  status: ('A' for Active; 'I' for Inactive)
REMARK    1  A    between atoms: C_2  and  C_3 
REMARK    2  A    between atoms: C_3  and  O_6 
REMARK    3  A    between atoms: C_3  and  C_4 
REMARK    4  A    between atoms: C_7  and  O_6 
REMARK    5  A    between atoms: C_9  and  C_10 
REMARK    6  A    between atoms: N_15  and  C_14 
REMARK    7  A    between atoms: N_20  and  C_19 
REMARK       I    between atoms: C_22  and  N_20 
ROOT
ATOM      1  C   LIG d   1       3.137  89.859 117.054  0.00  0.00     0.161 C 
ATOM      2  C   LIG d   1       3.980  90.753 117.734  0.00  0.00     0.016 C 
ATOM      3  C   LIG d   1       5.283  91.081 117.294  0.00  0.00     0.038 C 
ATOM      4  C   LIG d   1       5.778  90.651 116.054  0.00  0.00     0.028 C 
ATOM      5  C   LIG d   1       5.157  89.343 115.575  0.00  0.00    -0.047 C 
ATOM      6  C   LIG d   1       3.617  89.465 115.641  0.00  0.00     0.091 C 
ENDROOT
BRANCH   1   7
ATOM      7  O   LIG d   1       1.800  90.394 116.997  0.00  0.00    -0.368 OA
BRANCH   7   8
ATOM      8  C   LIG d   1       0.789  89.664 117.735  0.00  0.00     0.119 C 
BRANCH   8   9
ATOM      9  C   LIG d   1      -0.438  89.516 116.816  0.00  0.00     0.028 C 
ATOM     10  C   LIG d   1      -1.764  89.581 117.592  0.00  0.00     0.006 C 
ENDBRANCH   8   9
BRANCH   8  11
ATOM     11  C   LIG d   1       0.296  90.463 118.945  0.00  0.00     0.028 C 
ATOM     12  C   LIG d   1       0.972  90.035 120.257  0.00  0.00     0.006 C 
ENDBRANCH   8  11
ENDBRANCH   7   8
ENDBRANCH   1   7
BRANCH   6  13
ATOM     13  N   LIG d   1       2.932  88.200 115.269  0.00  0.00    -0.311 N 
ATOM     14  C   LIG d   1       2.505  87.932 114.036  0.00  0.00     0.210 C 
ATOM     15  C   LIG d   1       1.806  86.579 113.873  0.00  0.00     0.109 C 
ATOM     16  O   LIG d   1       2.667  88.673 113.055  0.00  0.00    -0.276 OA
ATOM     17  H   LIG d   1       2.787  87.529 115.998  0.00  0.00     0.149 HD
ENDBRANCH   6  13
BRANCH   5  18
ATOM     18  N   LIG d   1       5.659  89.084 114.213  0.00  0.00     0.381 N 
ATOM     19  H   LIG d   1       5.554  89.905 113.651  0.00  0.00    -0.090 HD
ATOM     20  H   LIG d   1       5.113  88.348 113.800  0.00  0.00    -0.090 HD
ATOM     21  H   LIG d   1       6.618  88.816 114.248  0.00  0.00    -0.090 HD
ENDBRANCH   5  18
BRANCH   3  22
ATOM     22  C   LIG d   1       6.121  91.817 118.118  0.00  0.00     0.382 C 
ATOM     23  O   LIG d   1       5.638  92.509 119.047  0.00  0.00    -0.241 OA
ATOM     24  O   LIG d   1       7.350  91.833 117.917  0.00  0.00    -0.241 OA
ENDBRANCH   3  22
TORSDOF 7
ENDMDL
MODEL 9
REMARK VINA RESULT:      -4.6     14.242     16.820
REMARK  7 active torsions:
REMARK  status: ('A' for Active; 'I' for Inactive)
REMARK    1  A    between atoms: C_2  and  C_3 
REMARK    2  A    between atoms: C_3  and  O_6 
REMARK    3  A    between atoms: C_3  and  C_4 
REMARK    4  A    between atoms: C_7  and  O_6 
REMARK    5  A    between atoms: C_9  and  C_10 
REMARK    6  A    between atoms: N_15  and  C_14 
REMARK    7  A    between atoms: N_20  and  C_19 
REMARK       I    between atoms: C_22  and  N_20 
ROOT
ATOM      1  C   LIG d   1       3.942  89.029 117.290  0.00  0.00     0.161 C 
ATOM      2  C   LIG d   1       4.587  88.823 116.060  0.00  0.00     0.016 C 
ATOM      3  C   LIG d   1       3.898  88.681 114.834  0.00  0.00     0.038 C 
ATOM      4  C   LIG d   1       2.514  88.887 114.733  0.00  0.00     0.028 C 
ATOM      5  C   LIG d   1       1.762  88.597 116.028  0.00  0.00    -0.047 C 
ATOM      6  C   LIG d   1       2.440  89.367 117.184  0.00  0.00     0.091 C 
ENDROOT
BRANCH   1   7
ATOM      7  O   LIG d   1       4.633  90.047 118.040  0.00  0.00    -0.368 OA
BRANCH   7   8
ATOM      8  C   LIG d   1       5.014  91.234 117.302  0.00  0.00     0.119 C 
BRANCH   8   9
ATOM      9  C   LIG d   1       6.375  91.704 117.851  0.00  0.00     0.028 C 
ATOM     10  C   LIG d   1       7.422  90.577 117.865  0.00  0.00     0.006 C 
ENDBRANCH   8   9
BRANCH   8  11
ATOM     11  C   LIG d   1       4.047  92.392 117.572  0.00  0.00     0.028 C 
ATOM     12  C   LIG d   1       3.772  92.601 119.070  0.00  0.00     0.006 C 
ENDBRANCH   8  11
ENDBRANCH   7   8
ENDBRANCH   1   7
BRANCH   6  13
ATOM     13  N   LIG d   1       1.819  89.073 118.502  0.00  0.00    -0.311 N 
ATOM     14  C   LIG d   1       0.884  89.841 119.059  0.00  0.00     0.210 C 
ATOM     15  C   LIG d   1       0.392  89.368 120.431  0.00  0.00     0.109 C 
ATOM     16  O   LIG d   1       0.392  90.850 118.534  0.00  0.00    -0.276 OA
ATOM     17  H   LIG d   1       2.137  88.255 118.984  0.00  0.00     0.149 HD
ENDBRANCH   6  13
BRANCH   5  18
ATOM     18  N   LIG d   1       0.354  88.984 115.823  0.00  0.00     0.381 N 
ATOM     19  H   LIG d   1      -0.245  88.364 116.330  0.00  0.00    -0.090 HD
ATOM     20  H   LIG d   1       0.135  88.906 114.845  0.00  0.00    -0.090 HD
ATOM     21  H   LIG d   1       0.210  89.921 116.129  0.00  0.00    -0.090 HD
ENDBRANCH   5  18
BRANCH   3  22
ATOM     22  C   LIG d   1       4.589  88.289 113.697  0.00  0.00     0.382 C 
ATOM     23  O   LIG d   1       4.220  87.276 113.057  0.00  0.00    -0.241 OA
ATOM     24  O   LIG d   1       5.604  88.911 113.330  0.00  0.00    -0.241 OA
ENDBRANCH   3  22
TORSDOF 7
ENDMDL
