MODEL 1
REMARK VINA RESULT:      -5.5      0.000      0.000
REMARK  7 active torsions:
REMARK  status: ('A' for Active; 'I' for Inactive)
REMARK    1  A    between atoms: C_2  and  C_3 
REMARK    2  A    between atoms: C_3  and  O_6 
REMARK    3  A    between atoms: C_3  and  C_4 
REMARK    4  A    between atoms: C_7  and  O_6 
REMARK    5  A    between atoms: C_9  and  C_10 
REMARK    6  A    between atoms: N_15  and  C_14 
REMARK    7  A    between atoms: N_20  and  C_19 
REMARK       I    between atoms: C_22  and  N_20 
ROOT
ATOM      1  C   LIG d   1      -7.055  77.185 117.590  0.00  0.00     0.161 C 
ATOM      2  C   LIG d   1      -8.316  77.744 117.858  0.00  0.00     0.016 C 
ATOM      3  C   LIG d   1      -8.564  79.136 117.866  0.00  0.00     0.038 C 
ATOM      4  C   LIG d   1      -7.595  80.064 117.454  0.00  0.00     0.028 C 
ATOM      5  C   LIG d   1      -6.165  79.578 117.662  0.00  0.00    -0.047 C 
ATOM      6  C   LIG d   1      -6.014  78.176 117.030  0.00  0.00     0.091 C 
ENDROOT
BRANCH   1   7
ATOM      7  O   LIG d   1      -7.200  76.057 116.704  0.00  0.00    -0.368 OA
BRANCH   7   8
ATOM      8  C   LIG d   1      -6.839  74.765 117.253  0.00  0.00     0.119 C 
BRANCH   8   9
ATOM      9  C   LIG d   1      -5.840  74.111 116.279  0.00  0.00     0.028 C 
ATOM     10  C   LIG d   1      -5.695  74.901 114.968  0.00  0.00     0.006 C 
ENDBRANCH   8   9
BRANCH   8  11
ATOM     11  C   LIG d   1      -8.044  73.821 117.293  0.00  0.00     0.028 C 
ATOM     12  C   LIG d   1      -7.677  72.371 116.938  0.00  0.00     0.006 C 
ENDBRANCH   8  11
ENDBRANCH   7   8
ENDBRANCH   1   7
BRANCH   6  13
ATOM     13  N   LIG d   1      -4.667  77.592 117.262  0.00  0.00    -0.311 N 
ATOM     14  C   LIG d   1      -3.664  77.693 116.392  0.00  0.00     0.210 C 
ATOM     15  C   LIG d   1      -2.365  77.002 116.818  0.00  0.00     0.109 C 
ATOM     16  O   LIG d   1      -3.717  78.318 115.321  0.00  0.00    -0.276 OA
ATOM     17  H   LIG d   1      -4.527  77.094 118.120  0.00  0.00     0.149 HD
ENDBRANCH   6  13
BRANCH   5  18
ATOM     18  N   LIG d   1      -5.263  80.582 117.066  0.00  0.00     0.381 N 
ATOM     19  H   LIG d   1      -4.935  80.257 116.178  0.00  0.00    -0.090 HD
ATOM     20  H   LIG d   1      -4.469  80.704 117.669  0.00  0.00    -0.090 HD
ATOM     21  H   LIG d   1      -5.742  81.448 116.955  0.00  0.00    -0.090 HD
ENDBRANCH   5  18
BRANCH   3  22
ATOM     22  C   LIG d   1      -9.781  79.614 118.327  0.00  0.00     0.382 C 
ATOM     23  O   LIG d   1     -10.359  79.041 119.281  0.00  0.00    -0.241 OA
ATOM     24  O   LIG d   1     -10.329  80.585 117.771  0.00  0.00    -0.241 OA
ENDBRANCH   3  22
TORSDOF 7
ENDMDL
MODEL 2
REMARK VINA RESULT:      -5.2      2.225      5.528
REMARK  7 active torsions:
REMARK  status: ('A' for Active; 'I' for Inactive)
REMARK    1  A    between atoms: C_2  and  C_3 
REMARK    2  A    between atoms: C_3  and  O_6 
REMARK    3  A    between atoms: C_3  and  C_4 
REMARK    4  A    between atoms: C_7  and  O_6 
REMARK    5  A    between atoms: C_9  and  C_10 
REMARK    6  A    between atoms: N_15  and  C_14 
REMARK    7  A    between atoms: N_20  and  C_19 
REMARK       I    between atoms: C_22  and  N_20 
ROOT
ATOM      1  C   LIG d   1      -5.028  76.244 115.610  0.00  0.00     0.161 C 
ATOM      2  C   LIG d   1      -4.040  75.290 115.315  0.00  0.00     0.016 C 
ATOM      3  C   LIG d   1      -2.752  75.298 115.897  0.00  0.00     0.038 C 
ATOM      4  C   LIG d   1      -2.414  76.178 116.936  0.00  0.00     0.028 C 
ATOM      5  C   LIG d   1      -3.208  77.479 116.910  0.00  0.00    -0.047 C 
ATOM      6  C   LIG d   1      -4.715  77.145 116.822  0.00  0.00     0.091 C 
ENDROOT
BRANCH   1   7
ATOM      7  O   LIG d   1      -6.301  75.590 115.787  0.00  0.00    -0.368 OA
BRANCH   7   8
ATOM      8  C   LIG d   1      -6.434  74.765 116.970  0.00  0.00     0.119 C 
BRANCH   8   9
ATOM      9  C   LIG d   1      -6.669  73.316 116.499  0.00  0.00     0.028 C 
ATOM     10  C   LIG d   1      -7.790  72.617 117.288  0.00  0.00     0.006 C 
ENDBRANCH   8   9
BRANCH   8  11
ATOM     11  C   LIG d   1      -7.684  75.138 117.772  0.00  0.00     0.028 C 
ATOM     12  C   LIG d   1      -8.514  76.245 117.102  0.00  0.00     0.006 C 
ENDBRANCH   8  11
ENDBRANCH   7   8
ENDBRANCH   1   7
BRANCH   6  13
ATOM     13  N   LIG d   1      -5.560  78.363 116.708  0.00  0.00    -0.311 N 
ATOM     14  C   LIG d   1      -6.119  78.968 117.754  0.00  0.00     0.210 C 
ATOM     15  C   LIG d   1      -6.968  80.196 117.413  0.00  0.00     0.109 C 
ATOM     16  O   LIG d   1      -5.967  78.623 118.936  0.00  0.00    -0.276 OA
ATOM     17  H   LIG d   1      -5.710  78.728 115.788  0.00  0.00     0.149 HD
ENDBRANCH   6  13
BRANCH   5  18
ATOM     18  N   LIG d   1      -2.855  78.242 118.122  0.00  0.00     0.381 N 
ATOM     19  H   LIG d   1      -3.066  79.210 117.987  0.00  0.00    -0.090 HD
ATOM     20  H   LIG d   1      -1.867  78.154 118.285  0.00  0.00    -0.090 HD
ATOM     21  H   LIG d   1      -3.360  77.890 118.906  0.00  0.00    -0.090 HD
ENDBRANCH   5  18
BRANCH   3  22
ATOM     22  C   LIG d   1      -1.774  74.443 115.413  0.00  0.00     0.382 C 
ATOM     23  O   LIG d   1      -1.453  73.422 116.068  0.00  0.00    -0.241 OA
ATOM     24  O   LIG d   1      -1.176  74.704 114.352  0.00  0.00    -0.241 OA
ENDBRANCH   3  22
TORSDOF 7
ENDMDL
MODEL 3
REMARK VINA RESULT:      -5.1      1.995      3.036
REMARK  7 active torsions:
REMARK  status: ('A' for Active; 'I' for Inactive)
REMARK    1  A    between atoms: C_2  and  C_3 
REMARK    2  A    between atoms: C_3  and  O_6 
REMARK    3  A    between atoms: C_3  and  C_4 
REMARK    4  A    between atoms: C_7  and  O_6 
REMARK    5  A    between atoms: C_9  and  C_10 
REMARK    6  A    between atoms: N_15  and  C_14 
REMARK    7  A    between atoms: N_20  and  C_19 
REMARK       I    between atoms: C_22  and  N_20 
ROOT
ATOM      1  C   LIG d   1      -5.594  78.568 117.164  0.00  0.00     0.161 C 
ATOM      2  C   LIG d   1      -6.861  77.971 117.281  0.00  0.00     0.016 C 
ATOM      3  C   LIG d   1      -8.040  78.696 117.569  0.00  0.00     0.038 C 
ATOM      4  C   LIG d   1      -8.056  80.098 117.612  0.00  0.00     0.028 C 
ATOM      5  C   LIG d   1      -6.714  80.708 118.001  0.00  0.00    -0.047 C 
ATOM      6  C   LIG d   1      -5.611  80.110 117.098  0.00  0.00     0.091 C 
ENDROOT
BRANCH   1   7
ATOM      7  O   LIG d   1      -4.901  78.025 116.024  0.00  0.00    -0.368 OA
BRANCH   7   8
ATOM      8  C   LIG d   1      -4.684  76.592 116.033  0.00  0.00     0.119 C 
BRANCH   8   9
ATOM      9  C   LIG d   1      -3.268  76.341 116.587  0.00  0.00     0.028 C 
ATOM     10  C   LIG d   1      -3.253  75.282 117.702  0.00  0.00     0.006 C 
ENDBRANCH   8   9
BRANCH   8  11
ATOM     11  C   LIG d   1      -4.671  76.022 114.611  0.00  0.00     0.028 C 
ATOM     12  C   LIG d   1      -5.527  74.754 114.470  0.00  0.00     0.006 C 
ENDBRANCH   8  11
ENDBRANCH   7   8
ENDBRANCH   1   7
BRANCH   6  13
ATOM     13  N   LIG d   1      -4.253  80.590 117.467  0.00  0.00    -0.311 N 
ATOM     14  C   LIG d   1      -3.631  81.584 116.837  0.00  0.00     0.210 C 
ATOM     15  C   LIG d   1      -2.230  81.908 117.365  0.00  0.00     0.109 C 
ATOM     16  O   LIG d   1      -4.119  82.251 115.912  0.00  0.00    -0.276 OA
ATOM     17  H   LIG d   1      -3.797  80.126 118.228  0.00  0.00     0.149 HD
ENDBRANCH   6  13
BRANCH   5  18
ATOM     18  N   LIG d   1      -6.835  82.172 117.872  0.00  0.00     0.381 N 
ATOM     19  H   LIG d   1      -7.754  82.409 117.554  0.00  0.00    -0.090 HD
ATOM     20  H   LIG d   1      -6.172  82.495 117.190  0.00  0.00    -0.090 HD
ATOM     21  H   LIG d   1      -6.658  82.608 118.750  0.00  0.00    -0.090 HD
ENDBRANCH   5  18
BRANCH   3  22
ATOM     22  C   LIG d   1      -9.212  78.014 117.858  0.00  0.00     0.382 C 
ATOM     23  O   LIG d   1      -9.321  76.800 117.560  0.00  0.00    -0.241 OA
ATOM     24  O   LIG d   1     -10.178  78.609 118.373  0.00  0.00    -0.241 OA
ENDBRANCH   3  22
TORSDOF 7
ENDMDL
MODEL 4
REMARK VINA RESULT:      -5.0      1.420      2.109
REMARK  7 active torsions:
REMARK  status: ('A' for Active; 'I' for Inactive)
REMARK    1  A    between atoms: C_2  and  C_3 
REMARK    2  A    between atoms: C_3  and  O_6 
REMARK    3  A    between atoms: C_3  and  C_4 
REMARK    4  A    between atoms: C_7  and  O_6 
REMARK    5  A    between atoms: C_9  and  C_10 
REMARK    6  A    between atoms: N_15  and  C_14 
REMARK    7  A    between atoms: N_20  and  C_19 
REMARK       I    between atoms: C_22  and  N_20 
ROOT
ATOM      1  C   LIG d   1      -5.928  78.144 117.722  0.00  0.00     0.161 C 
ATOM      2  C   LIG d   1      -7.307  78.000 117.945  0.00  0.00     0.016 C 
ATOM      3  C   LIG d   1      -8.227  79.070 117.851  0.00  0.00     0.038 C 
ATOM      4  C   LIG d   1      -7.847  80.334 117.377  0.00  0.00     0.028 C 
ATOM      5  C   LIG d   1      -6.378  80.658 117.624  0.00  0.00    -0.047 C 
ATOM      6  C   LIG d   1      -5.512  79.491 117.095  0.00  0.00     0.091 C 
ENDROOT
BRANCH   1   7
ATOM      7  O   LIG d   1      -5.446  77.048 116.920  0.00  0.00    -0.368 OA
BRANCH   7   8
ATOM      8  C   LIG d   1      -6.458  76.194 116.332  0.00  0.00     0.119 C 
BRANCH   8   9
ATOM      9  C   LIG d   1      -6.289  74.789 116.940  0.00  0.00     0.028 C 
ATOM     10  C   LIG d   1      -7.602  74.238 117.520  0.00  0.00     0.006 C 
ENDBRANCH   8   9
BRANCH   8  11
ATOM     11  C   LIG d   1      -6.231  76.015 114.828  0.00  0.00     0.028 C 
ATOM     12  C   LIG d   1      -5.397  74.768 114.496  0.00  0.00     0.006 C 
ENDBRANCH   8  11
ENDBRANCH   7   8
ENDBRANCH   1   7
BRANCH   6  13
ATOM     13  N   LIG d   1      -4.065  79.688 117.373  0.00  0.00    -0.311 N 
ATOM     14  C   LIG d   1      -3.146  79.815 116.417  0.00  0.00     0.210 C 
ATOM     15  C   LIG d   1      -1.710  79.990 116.921  0.00  0.00     0.109 C 
ATOM     16  O   LIG d   1      -3.388  79.832 115.201  0.00  0.00    -0.276 OA
ATOM     17  H   LIG d   1      -3.785  79.718 118.333  0.00  0.00     0.149 HD
ENDBRANCH   6  13
BRANCH   5  18
ATOM     18  N   LIG d   1      -6.086  81.942 116.959  0.00  0.00     0.381 N 
ATOM     19  H   LIG d   1      -6.872  82.554 117.045  0.00  0.00    -0.090 HD
ATOM     20  H   LIG d   1      -5.924  81.772 115.982  0.00  0.00    -0.090 HD
ATOM     21  H   LIG d   1      -5.281  82.363 117.369  0.00  0.00    -0.090 HD
ENDBRANCH   5  18
BRANCH   3  22
ATOM     22  C   LIG d   1      -9.536  78.890 118.273  0.00  0.00     0.382 C 
ATOM     23  O   LIG d   1     -10.053  79.704 119.075  0.00  0.00    -0.241 OA
ATOM     24  O   LIG d   1     -10.191  77.900 117.895  0.00  0.00    -0.241 OA
ENDBRANCH   3  22
TORSDOF 7
ENDMDL
MODEL 5
REMARK VINA RESULT:      -5.0     13.224     15.169
REMARK  7 active torsions:
REMARK  status: ('A' for Active; 'I' for Inactive)
REMARK    1  A    between atoms: C_2  and  C_3 
REMARK    2  A    between atoms: C_3  and  O_6 
REMARK    3  A    between atoms: C_3  and  C_4 
REMARK    4  A    between atoms: C_7  and  O_6 
REMARK    5  A    between atoms: C_9  and  C_10 
REMARK    6  A    between atoms: N_15  and  C_14 
REMARK    7  A    between atoms: N_20  and  C_19 
REMARK       I    between atoms: C_22  and  N_20 
ROOT
ATOM      1  C   LIG d   1      -4.918  91.756 118.637  0.00  0.00     0.161 C 
ATOM      2  C   LIG d   1      -5.912  91.660 117.649  0.00  0.00     0.016 C 
ATOM      3  C   LIG d   1      -5.767  90.893 116.470  0.00  0.00     0.038 C 
ATOM      4  C   LIG d   1      -4.670  90.042 116.270  0.00  0.00     0.028 C 
ATOM      5  C   LIG d   1      -3.412  90.493 117.004  0.00  0.00    -0.047 C 
ATOM      6  C   LIG d   1      -3.760  90.747 118.489  0.00  0.00     0.091 C 
ENDROOT
BRANCH   1   7
ATOM      7  O   LIG d   1      -5.516  91.644 119.944  0.00  0.00    -0.368 OA
BRANCH   7   8
ATOM      8  C   LIG d   1      -5.480  92.837 120.765  0.00  0.00     0.119 C 
BRANCH   8   9
ATOM      9  C   LIG d   1      -6.926  93.352 120.897  0.00  0.00     0.028 C 
ATOM     10  C   LIG d   1      -7.270  94.412 119.837  0.00  0.00     0.006 C 
ENDBRANCH   8   9
BRANCH   8  11
ATOM     11  C   LIG d   1      -4.709  93.966 120.074  0.00  0.00     0.028 C 
ATOM     12  C   LIG d   1      -3.455  94.395 120.853  0.00  0.00     0.006 C 
ENDBRANCH   8  11
ENDBRANCH   7   8
ENDBRANCH   1   7
BRANCH   6  13
ATOM     13  N   LIG d   1      -2.604  91.272 119.261  0.00  0.00    -0.311 N 
ATOM     14  C   LIG d   1      -2.060  90.631 120.294  0.00  0.00     0.210 C 
ATOM     15  C   LIG d   1      -0.889  91.358 120.962  0.00  0.00     0.109 C 
ATOM     16  O   LIG d   1      -2.416  89.515 120.701  0.00  0.00    -0.276 OA
ATOM     17  H   LIG d   1      -2.232  92.158 118.979  0.00  0.00     0.149 HD
ENDBRANCH   6  13
BRANCH   5  18
ATOM     18  N   LIG d   1      -2.389  89.446 116.821  0.00  0.00     0.381 N 
ATOM     19  H   LIG d   1      -2.494  89.024 115.920  0.00  0.00    -0.090 HD
ATOM     20  H   LIG d   1      -2.523  88.735 117.519  0.00  0.00    -0.090 HD
ATOM     21  H   LIG d   1      -1.478  89.839 116.908  0.00  0.00    -0.090 HD
ENDBRANCH   5  18
BRANCH   3  22
ATOM     22  C   LIG d   1      -6.708  91.003 115.458  0.00  0.00     0.382 C 
ATOM     23  O   LIG d   1      -7.869  90.559 115.631  0.00  0.00    -0.241 OA
ATOM     24  O   LIG d   1      -6.399  91.500 114.359  0.00  0.00    -0.241 OA
ENDBRANCH   3  22
TORSDOF 7
ENDMDL
MODEL 6
REMARK VINA RESULT:      -4.9     12.823     15.389
REMARK  7 active torsions:
REMARK  status: ('A' for Active; 'I' for Inactive)
REMARK    1  A    between atoms: C_2  and  C_3 
REMARK    2  A    between atoms: C_3  and  O_6 
REMARK    3  A    between atoms: C_3  and  C_4 
REMARK    4  A    between atoms: C_7  and  O_6 
REMARK    5  A    between atoms: C_9  and  C_10 
REMARK    6  A    between atoms: N_15  and  C_14 
REMARK    7  A    between atoms: N_20  and  C_19 
REMARK       I    between atoms: C_22  and  N_20 
ROOT
ATOM      1  C   LIG d   1       3.016  88.990 115.965  0.00  0.00     0.161 C 
ATOM      2  C   LIG d   1       3.513  90.130 116.618  0.00  0.00     0.016 C 
ATOM      3  C   LIG d   1       2.687  91.074 117.271  0.00  0.00     0.038 C 
ATOM      4  C   LIG d   1       1.312  90.861 117.447  0.00  0.00     0.028 C 
ATOM      5  C   LIG d   1       0.694  89.977 116.369  0.00  0.00    -0.047 C 
ATOM      6  C   LIG d   1       1.530  88.682 116.241  0.00  0.00     0.091 C 
ENDROOT
BRANCH   1   7
ATOM      7  O   LIG d   1       3.833  87.847 116.289  0.00  0.00    -0.368 OA
BRANCH   7   8
ATOM      8  C   LIG d   1       4.932  87.573 115.385  0.00  0.00     0.119 C 
BRANCH   8   9
ATOM      9  C   LIG d   1       4.454  87.910 113.960  0.00  0.00     0.028 C 
ATOM     10  C   LIG d   1       5.488  88.734 113.174  0.00  0.00     0.006 C 
ENDBRANCH   8   9
BRANCH   8  11
ATOM     11  C   LIG d   1       5.270  86.079 115.357  0.00  0.00     0.028 C 
ATOM     12  C   LIG d   1       4.255  85.253 114.551  0.00  0.00     0.006 C 
ENDBRANCH   8  11
ENDBRANCH   7   8
ENDBRANCH   1   7
BRANCH   6  13
ATOM     13  N   LIG d   1       1.043  87.799 115.150  0.00  0.00    -0.311 N 
ATOM     14  C   LIG d   1       0.765  86.507 115.322  0.00  0.00     0.210 C 
ATOM     15  C   LIG d   1       0.296  85.774 114.061  0.00  0.00     0.109 C 
ATOM     16  O   LIG d   1       0.833  85.907 116.405  0.00  0.00    -0.276 OA
ATOM     17  H   LIG d   1       0.929  88.211 114.245  0.00  0.00     0.149 HD
ENDBRANCH   6  13
BRANCH   5  18
ATOM     18  N   LIG d   1      -0.709  89.724 116.750  0.00  0.00     0.381 N 
ATOM     19  H   LIG d   1      -1.182  90.594 116.894  0.00  0.00    -0.090 HD
ATOM     20  H   LIG d   1      -0.724  89.210 117.613  0.00  0.00    -0.090 HD
ATOM     21  H   LIG d   1      -1.167  89.203 116.036  0.00  0.00    -0.090 HD
ENDBRANCH   5  18
BRANCH   3  22
ATOM     22  C   LIG d   1       3.232  92.267 117.723  0.00  0.00     0.382 C 
ATOM     23  O   LIG d   1       3.944  92.961 116.957  0.00  0.00    -0.241 OA
ATOM     24  O   LIG d   1       3.056  92.636 118.899  0.00  0.00    -0.241 OA
ENDBRANCH   3  22
TORSDOF 7
ENDMDL
MODEL 7
REMARK VINA RESULT:      -4.9     18.487     21.949
REMARK  7 active torsions:
REMARK  status: ('A' for Active; 'I' for Inactive)
REMARK    1  A    between atoms: C_2  and  C_3 
REMARK    2  A    between atoms: C_3  and  O_6 
REMARK    3  A    between atoms: C_3  and  C_4 
REMARK    4  A    between atoms: C_7  and  O_6 
REMARK    5  A    between atoms: C_9  and  C_10 
REMARK    6  A    between atoms: N_15  and  C_14 
REMARK    7  A    between atoms: N_20  and  C_19 
REMARK       I    between atoms: C_22  and  N_20 
ROOT
ATOM      1  C   LIG d   1       0.728  57.391 119.526  0.00  0.00     0.161 C 
ATOM      2  C   LIG d   1       1.533  56.375 118.984  0.00  0.00     0.016 C 
ATOM      3  C   LIG d   1       1.131  55.557 117.903  0.00  0.00     0.038 C 
ATOM      4  C   LIG d   1      -0.051  55.802 117.187  0.00  0.00     0.028 C 
ATOM      5  C   LIG d   1      -1.128  56.495 118.015  0.00  0.00    -0.047 C 
ATOM      6  C   LIG d   1      -0.517  57.746 118.687  0.00  0.00     0.091 C 
ENDROOT
BRANCH   1   7
ATOM      7  O   LIG d   1       1.524  58.569 119.764  0.00  0.00    -0.368 OA
BRANCH   7   8
ATOM      8  C   LIG d   1       2.769  58.657 119.029  0.00  0.00     0.119 C 
BRANCH   8   9
ATOM      9  C   LIG d   1       3.821  59.271 119.972  0.00  0.00     0.028 C 
ATOM     10  C   LIG d   1       3.184  60.053 121.133  0.00  0.00     0.006 C 
ENDBRANCH   8   9
BRANCH   8  11
ATOM     11  C   LIG d   1       2.656  59.636 117.856  0.00  0.00     0.028 C 
ATOM     12  C   LIG d   1       1.383  60.496 117.918  0.00  0.00     0.006 C 
ENDBRANCH   8  11
ENDBRANCH   7   8
ENDBRANCH   1   7
BRANCH   6  13
ATOM     13  N   LIG d   1      -1.482  58.436 119.583  0.00  0.00    -0.311 N 
ATOM     14  C   LIG d   1      -2.181  59.510 119.220  0.00  0.00     0.210 C 
ATOM     15  C   LIG d   1      -3.104  60.077 120.303  0.00  0.00     0.109 C 
ATOM     16  O   LIG d   1      -2.150  60.026 118.093  0.00  0.00    -0.276 OA
ATOM     17  H   LIG d   1      -1.593  58.065 120.506  0.00  0.00     0.149 HD
ENDBRANCH   6  13
BRANCH   5  18
ATOM     18  N   LIG d   1      -2.249  56.813 117.111  0.00  0.00     0.381 N 
ATOM     19  H   LIG d   1      -2.193  56.246 116.289  0.00  0.00    -0.090 HD
ATOM     20  H   LIG d   1      -2.181  57.777 116.835  0.00  0.00    -0.090 HD
ATOM     21  H   LIG d   1      -3.117  56.654 117.575  0.00  0.00    -0.090 HD
ENDBRANCH   5  18
BRANCH   3  22
ATOM     22  C   LIG d   1       1.896  54.455 117.553  0.00  0.00     0.382 C 
ATOM     23  O   LIG d   1       2.703  53.965 118.379  0.00  0.00    -0.241 OA
ATOM     24  O   LIG d   1       1.822  53.973 116.407  0.00  0.00    -0.241 OA
ENDBRANCH   3  22
TORSDOF 7
ENDMDL
MODEL 8
REMARK VINA RESULT:      -4.8     12.302     14.340
REMARK  7 active torsions:
REMARK  status: ('A' for Active; 'I' for Inactive)
REMARK    1  A    between atoms: C_2  and  C_3 
REMARK    2  A    between atoms: C_3  and  O_6 
REMARK    3  A    between atoms: C_3  and  C_4 
REMARK    4  A    between atoms: C_7  and  O_6 
REMARK    5  A    between atoms: C_9  and  C_10 
REMARK    6  A    between atoms: N_15  and  C_14 
REMARK    7  A    between atoms: N_20  and  C_19 
REMARK       I    between atoms: C_22  and  N_20 
ROOT
ATOM      1  C   LIG d   1       1.869  88.371 115.948  0.00  0.00     0.161 C 
ATOM      2  C   LIG d   1       0.600  88.635 116.490  0.00  0.00     0.016 C 
ATOM      3  C   LIG d   1       0.308  89.782 117.264  0.00  0.00     0.038 C 
ATOM      4  C   LIG d   1       1.232  90.825 117.422  0.00  0.00     0.028 C 
ATOM      5  C   LIG d   1       2.684  90.369 117.317  0.00  0.00    -0.047 C 
ATOM      6  C   LIG d   1       2.860  89.552 116.016  0.00  0.00     0.091 C 
ENDROOT
BRANCH   1   7
ATOM      7  O   LIG d   1       1.733  87.909 114.590  0.00  0.00    -0.368 OA
BRANCH   7   8
ATOM      8  C   LIG d   1       1.915  86.487 114.379  0.00  0.00     0.119 C 
BRANCH   8   9
ATOM      9  C   LIG d   1       2.871  86.315 113.182  0.00  0.00     0.028 C 
ATOM     10  C   LIG d   1       4.137  85.525 113.551  0.00  0.00     0.006 C 
ENDBRANCH   8   9
BRANCH   8  11
ATOM     11  C   LIG d   1       0.607  85.814 113.953  0.00  0.00     0.028 C 
ATOM     12  C   LIG d   1      -0.189  85.253 115.142  0.00  0.00     0.006 C 
ENDBRANCH   8  11
ENDBRANCH   7   8
ENDBRANCH   1   7
BRANCH   6  13
ATOM     13  N   LIG d   1       4.231  88.996 115.877  0.00  0.00    -0.311 N 
ATOM     14  C   LIG d   1       4.918  89.016 114.736  0.00  0.00     0.210 C 
ATOM     15  C   LIG d   1       6.306  88.372 114.806  0.00  0.00     0.109 C 
ATOM     16  O   LIG d   1       4.522  89.533 113.681  0.00  0.00    -0.276 OA
ATOM     17  H   LIG d   1       4.642  88.585 116.693  0.00  0.00     0.149 HD
ENDBRANCH   6  13
BRANCH   5  18
ATOM     18  N   LIG d   1       3.534  91.574 117.362  0.00  0.00     0.381 N 
ATOM     19  H   LIG d   1       3.975  91.711 116.474  0.00  0.00    -0.090 HD
ATOM     20  H   LIG d   1       4.251  91.440 118.053  0.00  0.00    -0.090 HD
ATOM     21  H   LIG d   1       2.983  92.371 117.594  0.00  0.00    -0.090 HD
ENDBRANCH   5  18
BRANCH   3  22
ATOM     22  C   LIG d   1      -0.909  89.875 117.923  0.00  0.00     0.382 C 
ATOM     23  O   LIG d   1      -0.938  90.012 119.169  0.00  0.00    -0.241 OA
ATOM     24  O   LIG d   1      -1.978  89.779 117.291  0.00  0.00    -0.241 OA
ENDBRANCH   3  22
TORSDOF 7
ENDMDL
MODEL 9
REMARK VINA RESULT:      -4.7     18.804     22.060
REMARK  7 active torsions:
REMARK  status: ('A' for Active; 'I' for Inactive)
REMARK    1  A    between atoms: C_2  and  C_3 
REMARK    2  A    between atoms: C_3  and  O_6 
REMARK    3  A    between atoms: C_3  and  C_4 
REMARK    4  A    between atoms: C_7  and  O_6 
REMARK    5  A    between atoms: C_9  and  C_10 
REMARK    6  A    between atoms: N_15  and  C_14 
REMARK    7  A    between atoms: N_20  and  C_19 
REMARK       I    between atoms: C_22  and  N_20 
ROOT
ATOM      1  C   LIG d   1      -0.302  56.877 120.016  0.00  0.00     0.161 C 
ATOM      2  C   LIG d   1       0.709  55.935 120.272  0.00  0.00     0.016 C 
ATOM      3  C   LIG d   1       1.409  55.250 119.253  0.00  0.00     0.038 C 
ATOM      4  C   LIG d   1       1.250  55.573 117.897  0.00  0.00     0.028 C 
ATOM      5  C   LIG d   1      -0.120  56.158 117.571  0.00  0.00    -0.047 C 
ATOM      6  C   LIG d   1      -0.412  57.324 118.544  0.00  0.00     0.091 C 
ENDROOT
BRANCH   1   7
ATOM      7  O   LIG d   1      -0.132  58.021 120.876  0.00  0.00    -0.368 OA
BRANCH   7   8
ATOM      8  C   LIG d   1       0.647  59.116 120.333  0.00  0.00     0.119 C 
BRANCH   8   9
ATOM      9  C   LIG d   1       2.023  59.094 121.026  0.00  0.00     0.028 C 
ATOM     10  C   LIG d   1       2.563  60.506 121.303  0.00  0.00     0.006 C 
ENDBRANCH   8   9
BRANCH   8  11
ATOM     11  C   LIG d   1       0.032  60.471 120.696  0.00  0.00     0.028 C 
ATOM     12  C   LIG d   1      -1.482  60.389 120.949  0.00  0.00     0.006 C 
ENDBRANCH   8  11
ENDBRANCH   7   8
ENDBRANCH   1   7
BRANCH   6  13
ATOM     13  N   LIG d   1      -1.769  57.898 118.349  0.00  0.00    -0.311 N 
ATOM     14  C   LIG d   1      -2.009  58.974 117.600  0.00  0.00     0.210 C 
ATOM     15  C   LIG d   1      -3.476  59.412 117.549  0.00  0.00     0.109 C 
ATOM     16  O   LIG d   1      -1.151  59.587 116.947  0.00  0.00    -0.276 OA
ATOM     17  H   LIG d   1      -2.528  57.444 118.817  0.00  0.00     0.149 HD
ENDBRANCH   6  13
BRANCH   5  18
ATOM     18  N   LIG d   1      -0.101  56.577 116.157  0.00  0.00     0.381 N 
ATOM     19  H   LIG d   1      -0.401  57.528 116.081  0.00  0.00    -0.090 HD
ATOM     20  H   LIG d   1      -0.741  56.001 115.639  0.00  0.00    -0.090 HD
ATOM     21  H   LIG d   1       0.819  56.480 115.785  0.00  0.00    -0.090 HD
ENDBRANCH   5  18
BRANCH   3  22
ATOM     22  C   LIG d   1       2.252  54.200 119.585  0.00  0.00     0.382 C 
ATOM     23  O   LIG d   1       2.102  53.596 120.674  0.00  0.00    -0.241 OA
ATOM     24  O   LIG d   1       3.189  53.879 118.829  0.00  0.00    -0.241 OA
ENDBRANCH   3  22
TORSDOF 7
ENDMDL
