MODEL 1
REMARK VINA RESULT:      -5.3      0.000      0.000
REMARK  7 active torsions:
REMARK  status: ('A' for Active; 'I' for Inactive)
REMARK    1  A    between atoms: C_2  and  C_3 
REMARK    2  A    between atoms: C_3  and  O_6 
REMARK    3  A    between atoms: C_3  and  C_4 
REMARK    4  A    between atoms: C_7  and  O_6 
REMARK    5  A    between atoms: C_9  and  C_10 
REMARK    6  A    between atoms: N_15  and  C_14 
REMARK    7  A    between atoms: N_20  and  C_19 
REMARK       I    between atoms: C_22  and  N_20 
ROOT
ATOM      1  C   LIG d   1      -4.725  92.752 117.603  0.00  0.00     0.161 C 
ATOM      2  C   LIG d   1      -4.707  91.611 116.784  0.00  0.00     0.016 C 
ATOM      3  C   LIG d   1      -5.838  91.143 116.077  0.00  0.00     0.038 C 
ATOM      4  C   LIG d   1      -7.033  91.875 116.022  0.00  0.00     0.028 C 
ATOM      5  C   LIG d   1      -7.254  92.767 117.238  0.00  0.00    -0.047 C 
ATOM      6  C   LIG d   1      -5.989  93.626 117.467  0.00  0.00     0.091 C 
ENDROOT
BRANCH   1   7
ATOM      7  O   LIG d   1      -3.542  93.542 117.367  0.00  0.00    -0.368 OA
BRANCH   7   8
ATOM      8  C   LIG d   1      -2.433  93.315 118.271  0.00  0.00     0.119 C 
BRANCH   8   9
ATOM      9  C   LIG d   1      -2.602  94.277 119.463  0.00  0.00     0.028 C 
ATOM     10  C   LIG d   1      -2.695  95.747 119.021  0.00  0.00     0.006 C 
ENDBRANCH   8   9
BRANCH   8  11
ATOM     11  C   LIG d   1      -1.099  93.700 117.625  0.00  0.00     0.028 C 
ATOM     12  C   LIG d   1      -0.058  92.571 117.687  0.00  0.00     0.006 C 
ENDBRANCH   8  11
ENDBRANCH   7   8
ENDBRANCH   1   7
BRANCH   6  13
ATOM     13  N   LIG d   1      -6.088  94.467 118.688  0.00  0.00    -0.311 N 
ATOM     14  C   LIG d   1      -6.588  95.702 118.689  0.00  0.00     0.210 C 
ATOM     15  C   LIG d   1      -6.579  96.402 120.052  0.00  0.00     0.109 C 
ATOM     16  O   LIG d   1      -7.067  96.272 117.697  0.00  0.00    -0.276 OA
ATOM     17  H   LIG d   1      -5.751  94.071 119.543  0.00  0.00     0.149 HD
ENDBRANCH   6  13
BRANCH   5  18
ATOM     18  N   LIG d   1      -8.463  93.573 116.986  0.00  0.00     0.381 N 
ATOM     19  H   LIG d   1      -8.512  94.325 117.645  0.00  0.00    -0.090 HD
ATOM     20  H   LIG d   1      -9.273  92.992 117.110  0.00  0.00    -0.090 HD
ATOM     21  H   LIG d   1      -8.444  93.936 116.059  0.00  0.00    -0.090 HD
ENDBRANCH   5  18
BRANCH   3  22
ATOM     22  C   LIG d   1      -5.792  89.908 115.448  0.00  0.00     0.382 C 
ATOM     23  O   LIG d   1      -6.661  89.606 114.595  0.00  0.00    -0.241 OA
ATOM     24  O   LIG d   1      -4.919  89.075 115.754  0.00  0.00    -0.241 OA
ENDBRANCH   3  22
TORSDOF 7
ENDMDL
MODEL 2
REMARK VINA RESULT:      -5.3      2.618      4.427
REMARK  7 active torsions:
REMARK  status: ('A' for Active; 'I' for Inactive)
REMARK    1  A    between atoms: C_2  and  C_3 
REMARK    2  A    between atoms: C_3  and  O_6 
REMARK    3  A    between atoms: C_3  and  C_4 
REMARK    4  A    between atoms: C_7  and  O_6 
REMARK    5  A    between atoms: C_9  and  C_10 
REMARK    6  A    between atoms: N_15  and  C_14 
REMARK    7  A    between atoms: N_20  and  C_19 
REMARK       I    between atoms: C_22  and  N_20 
ROOT
ATOM      1  C   LIG d   1      -4.578  92.616 117.666  0.00  0.00     0.161 C 
ATOM      2  C   LIG d   1      -5.918  93.036 117.626  0.00  0.00     0.016 C 
ATOM      3  C   LIG d   1      -6.911  92.395 116.849  0.00  0.00     0.038 C 
ATOM      4  C   LIG d   1      -6.662  91.192 116.173  0.00  0.00     0.028 C 
ATOM      5  C   LIG d   1      -5.201  91.010 115.778  0.00  0.00    -0.047 C 
ATOM      6  C   LIG d   1      -4.312  91.239 117.022  0.00  0.00     0.091 C 
ENDROOT
BRANCH   1   7
ATOM      7  O   LIG d   1      -4.101  92.634 119.026  0.00  0.00    -0.368 OA
BRANCH   7   8
ATOM      8  C   LIG d   1      -3.173  93.695 119.362  0.00  0.00     0.119 C 
BRANCH   8   9
ATOM      9  C   LIG d   1      -2.625  94.267 118.040  0.00  0.00     0.028 C 
ATOM     10  C   LIG d   1      -1.096  94.145 117.937  0.00  0.00     0.006 C 
ENDBRANCH   8   9
BRANCH   8  11
ATOM     11  C   LIG d   1      -1.950  93.150 120.105  0.00  0.00     0.028 C 
ATOM     12  C   LIG d   1      -2.310  92.060 121.127  0.00  0.00     0.006 C 
ENDBRANCH   8  11
ENDBRANCH   7   8
ENDBRANCH   1   7
BRANCH   6  13
ATOM     13  N   LIG d   1      -2.862  91.163 116.705  0.00  0.00    -0.311 N 
ATOM     14  C   LIG d   1      -1.988  90.470 117.432  0.00  0.00     0.210 C 
ATOM     15  C   LIG d   1      -0.538  90.541 116.942  0.00  0.00     0.109 C 
ATOM     16  O   LIG d   1      -2.280  89.776 118.417  0.00  0.00    -0.276 OA
ATOM     17  H   LIG d   1      -2.544  91.671 115.903  0.00  0.00     0.149 HD
ENDBRANCH   6  13
BRANCH   5  18
ATOM     18  N   LIG d   1      -5.058  89.658 115.206  0.00  0.00     0.381 N 
ATOM     19  H   LIG d   1      -4.869  89.723 114.226  0.00  0.00    -0.090 HD
ATOM     20  H   LIG d   1      -5.923  89.161 115.328  0.00  0.00    -0.090 HD
ATOM     21  H   LIG d   1      -4.319  89.171 115.663  0.00  0.00    -0.090 HD
ENDBRANCH   5  18
BRANCH   3  22
ATOM     22  C   LIG d   1      -8.160  92.982 116.712  0.00  0.00     0.382 C 
ATOM     23  O   LIG d   1      -8.574  93.787 117.581  0.00  0.00    -0.241 OA
ATOM     24  O   LIG d   1      -8.897  92.682 115.753  0.00  0.00    -0.241 OA
ENDBRANCH   3  22
TORSDOF 7
ENDMDL
MODEL 3
REMARK VINA RESULT:      -5.3      1.511      2.209
REMARK  7 active torsions:
REMARK  status: ('A' for Active; 'I' for Inactive)
REMARK    1  A    between atoms: C_2  and  C_3 
REMARK    2  A    between atoms: C_3  and  O_6 
REMARK    3  A    between atoms: C_3  and  C_4 
REMARK    4  A    between atoms: C_7  and  O_6 
REMARK    5  A    between atoms: C_9  and  C_10 
REMARK    6  A    between atoms: N_15  and  C_14 
REMARK    7  A    between atoms: N_20  and  C_19 
REMARK       I    between atoms: C_22  and  N_20 
ROOT
ATOM      1  C   LIG d   1      -5.999  91.829 118.292  0.00  0.00     0.161 C 
ATOM      2  C   LIG d   1      -5.388  90.886 117.449  0.00  0.00     0.016 C 
ATOM      3  C   LIG d   1      -5.830  90.616 116.133  0.00  0.00     0.038 C 
ATOM      4  C   LIG d   1      -6.826  91.385 115.514  0.00  0.00     0.028 C 
ATOM      5  C   LIG d   1      -7.810  92.009 116.498  0.00  0.00    -0.047 C 
ATOM      6  C   LIG d   1      -7.017  92.756 117.595  0.00  0.00     0.091 C 
ENDROOT
BRANCH   1   7
ATOM      7  O   LIG d   1      -4.991  92.608 118.965  0.00  0.00    -0.368 OA
BRANCH   7   8
ATOM      8  C   LIG d   1      -4.507  93.775 118.254  0.00  0.00     0.119 C 
BRANCH   8   9
ATOM      9  C   LIG d   1      -3.082  93.458 117.761  0.00  0.00     0.028 C 
ATOM     10  C   LIG d   1      -2.068  94.543 118.160  0.00  0.00     0.006 C 
ENDBRANCH   8   9
BRANCH   8  11
ATOM     11  C   LIG d   1      -4.353  94.975 119.193  0.00  0.00     0.028 C 
ATOM     12  C   LIG d   1      -4.934  94.715 120.592  0.00  0.00     0.006 C 
ENDBRANCH   8  11
ENDBRANCH   7   8
ENDBRANCH   1   7
BRANCH   6  13
ATOM     13  N   LIG d   1      -7.901  93.324 118.646  0.00  0.00    -0.311 N 
ATOM     14  C   LIG d   1      -8.130  94.629 118.784  0.00  0.00     0.210 C 
ATOM     15  C   LIG d   1      -9.057  95.003 119.945  0.00  0.00     0.109 C 
ATOM     16  O   LIG d   1      -7.680  95.509 118.036  0.00  0.00    -0.276 OA
ATOM     17  H   LIG d   1      -8.332  92.678 119.277  0.00  0.00     0.149 HD
ENDBRANCH   6  13
BRANCH   5  18
ATOM     18  N   LIG d   1      -8.709  92.892 115.731  0.00  0.00     0.381 N 
ATOM     19  H   LIG d   1      -8.194  93.353 115.008  0.00  0.00    -0.090 HD
ATOM     20  H   LIG d   1      -9.081  93.592 116.349  0.00  0.00    -0.090 HD
ATOM     21  H   LIG d   1      -9.452  92.361 115.334  0.00  0.00    -0.090 HD
ENDBRANCH   5  18
BRANCH   3  22
ATOM     22  C   LIG d   1      -5.300  89.541 115.437  0.00  0.00     0.382 C 
ATOM     23  O   LIG d   1      -5.725  89.266 114.289  0.00  0.00    -0.241 OA
ATOM     24  O   LIG d   1      -4.433  88.815 115.959  0.00  0.00    -0.241 OA
ENDBRANCH   3  22
TORSDOF 7
ENDMDL
MODEL 4
REMARK VINA RESULT:      -5.3      1.985      4.425
REMARK  7 active torsions:
REMARK  status: ('A' for Active; 'I' for Inactive)
REMARK    1  A    between atoms: C_2  and  C_3 
REMARK    2  A    between atoms: C_3  and  O_6 
REMARK    3  A    between atoms: C_3  and  C_4 
REMARK    4  A    between atoms: C_7  and  O_6 
REMARK    5  A    between atoms: C_9  and  C_10 
REMARK    6  A    between atoms: N_15  and  C_14 
REMARK    7  A    between atoms: N_20  and  C_19 
REMARK       I    between atoms: C_22  and  N_20 
ROOT
ATOM      1  C   LIG d   1      -6.342  93.063 117.524  0.00  0.00     0.161 C 
ATOM      2  C   LIG d   1      -7.064  91.979 116.998  0.00  0.00     0.016 C 
ATOM      3  C   LIG d   1      -6.458  90.778 116.560  0.00  0.00     0.038 C 
ATOM      4  C   LIG d   1      -5.093  90.521 116.761  0.00  0.00     0.028 C 
ATOM      5  C   LIG d   1      -4.242  91.785 116.826  0.00  0.00    -0.047 C 
ATOM      6  C   LIG d   1      -4.865  92.758 117.853  0.00  0.00     0.091 C 
ENDROOT
BRANCH   1   7
ATOM      7  O   LIG d   1      -7.017  93.582 118.686  0.00  0.00    -0.368 OA
BRANCH   7   8
ATOM      8  C   LIG d   1      -7.984  94.634 118.445  0.00  0.00     0.119 C 
BRANCH   8   9
ATOM      9  C   LIG d   1      -7.202  95.891 118.014  0.00  0.00     0.028 C 
ATOM     10  C   LIG d   1      -6.461  96.552 119.188  0.00  0.00     0.006 C 
ENDBRANCH   8   9
BRANCH   8  11
ATOM     11  C   LIG d   1      -8.710  95.030 119.734  0.00  0.00     0.028 C 
ATOM     12  C   LIG d   1      -9.454  93.853 120.384  0.00  0.00     0.006 C 
ENDBRANCH   8  11
ENDBRANCH   7   8
ENDBRANCH   1   7
BRANCH   6  13
ATOM     13  N   LIG d   1      -4.142  94.054 117.917  0.00  0.00    -0.311 N 
ATOM     14  C   LIG d   1      -3.198  94.323 118.818  0.00  0.00     0.210 C 
ATOM     15  C   LIG d   1      -2.593  95.727 118.721  0.00  0.00     0.109 C 
ATOM     16  O   LIG d   1      -2.782  93.521 119.668  0.00  0.00    -0.276 OA
ATOM     17  H   LIG d   1      -4.394  94.751 117.245  0.00  0.00     0.149 HD
ENDBRANCH   6  13
BRANCH   5  18
ATOM     18  N   LIG d   1      -2.867  91.378 117.175  0.00  0.00     0.381 N 
ATOM     19  H   LIG d   1      -2.839  90.394 117.349  0.00  0.00    -0.090 HD
ATOM     20  H   LIG d   1      -2.591  91.855 118.016  0.00  0.00    -0.090 HD
ATOM     21  H   LIG d   1      -2.244  91.610 116.433  0.00  0.00    -0.090 HD
ENDBRANCH   5  18
BRANCH   3  22
ATOM     22  C   LIG d   1      -7.212  89.836 115.878  0.00  0.00     0.382 C 
ATOM     23  O   LIG d   1      -8.171  89.266 116.452  0.00  0.00    -0.241 OA
ATOM     24  O   LIG d   1      -6.919  89.517 114.711  0.00  0.00    -0.241 OA
ENDBRANCH   3  22
TORSDOF 7
ENDMDL
MODEL 5
REMARK VINA RESULT:      -5.3      1.799      4.817
REMARK  7 active torsions:
REMARK  status: ('A' for Active; 'I' for Inactive)
REMARK    1  A    between atoms: C_2  and  C_3 
REMARK    2  A    between atoms: C_3  and  O_6 
REMARK    3  A    between atoms: C_3  and  C_4 
REMARK    4  A    between atoms: C_7  and  O_6 
REMARK    5  A    between atoms: C_9  and  C_10 
REMARK    6  A    between atoms: N_15  and  C_14 
REMARK    7  A    between atoms: N_20  and  C_19 
REMARK       I    between atoms: C_22  and  N_20 
ROOT
ATOM      1  C   LIG d   1      -5.528  93.023 117.859  0.00  0.00     0.161 C 
ATOM      2  C   LIG d   1      -6.079  94.172 118.452  0.00  0.00     0.016 C 
ATOM      3  C   LIG d   1      -7.371  94.659 118.150  0.00  0.00     0.038 C 
ATOM      4  C   LIG d   1      -8.265  93.940 117.341  0.00  0.00     0.028 C 
ATOM      5  C   LIG d   1      -7.571  93.039 116.325  0.00  0.00    -0.047 C 
ATOM      6  C   LIG d   1      -6.529  92.165 117.058  0.00  0.00     0.091 C 
ENDROOT
BRANCH   1   7
ATOM      7  O   LIG d   1      -4.871  92.223 118.862  0.00  0.00    -0.368 OA
BRANCH   7   8
ATOM      8  C   LIG d   1      -3.425  92.300 118.892  0.00  0.00     0.119 C 
BRANCH   8   9
ATOM      9  C   LIG d   1      -2.971  92.994 117.594  0.00  0.00     0.028 C 
ATOM     10  C   LIG d   1      -2.003  94.160 117.859  0.00  0.00     0.006 C 
ENDBRANCH   8   9
BRANCH   8  11
ATOM     11  C   LIG d   1      -2.792  90.906 118.849  0.00  0.00     0.028 C 
ATOM     12  C   LIG d   1      -2.432  90.459 117.423  0.00  0.00     0.006 C 
ENDBRANCH   8  11
ENDBRANCH   7   8
ENDBRANCH   1   7
BRANCH   6  13
ATOM     13  N   LIG d   1      -5.746  91.313 116.125  0.00  0.00    -0.311 N 
ATOM     14  C   LIG d   1      -6.026  90.033 115.890  0.00  0.00     0.210 C 
ATOM     15  C   LIG d   1      -5.081  89.333 114.909  0.00  0.00     0.109 C 
ATOM     16  O   LIG d   1      -6.987  89.418 116.377  0.00  0.00    -0.276 OA
ATOM     17  H   LIG d   1      -4.967  91.740 115.663  0.00  0.00     0.149 HD
ENDBRANCH   6  13
BRANCH   5  18
ATOM     18  N   LIG d   1      -8.614  92.248 115.645  0.00  0.00     0.381 N 
ATOM     19  H   LIG d   1      -8.885  91.478 116.223  0.00  0.00    -0.090 HD
ATOM     20  H   LIG d   1      -8.238  91.883 114.788  0.00  0.00    -0.090 HD
ATOM     21  H   LIG d   1      -9.405  92.822 115.451  0.00  0.00    -0.090 HD
ENDBRANCH   5  18
BRANCH   3  22
ATOM     22  C   LIG d   1      -7.768  95.899 118.628  0.00  0.00     0.382 C 
ATOM     23  O   LIG d   1      -8.226  96.005 119.791  0.00  0.00    -0.241 OA
ATOM     24  O   LIG d   1      -7.714  96.905 117.896  0.00  0.00    -0.241 OA
ENDBRANCH   3  22
TORSDOF 7
ENDMDL
MODEL 6
REMARK VINA RESULT:      -5.1     15.383     17.587
REMARK  7 active torsions:
REMARK  status: ('A' for Active; 'I' for Inactive)
REMARK    1  A    between atoms: C_2  and  C_3 
REMARK    2  A    between atoms: C_3  and  O_6 
REMARK    3  A    between atoms: C_3  and  C_4 
REMARK    4  A    between atoms: C_7  and  O_6 
REMARK    5  A    between atoms: C_9  and  C_10 
REMARK    6  A    between atoms: N_15  and  C_14 
REMARK    7  A    between atoms: N_20  and  C_19 
REMARK       I    between atoms: C_22  and  N_20 
ROOT
ATOM      1  C   LIG d   1      -1.521  76.968 116.461  0.00  0.00     0.161 C 
ATOM      2  C   LIG d   1      -2.674  76.873 115.665  0.00  0.00     0.016 C 
ATOM      3  C   LIG d   1      -3.355  75.658 115.423  0.00  0.00     0.038 C 
ATOM      4  C   LIG d   1      -3.013  74.471 116.088  0.00  0.00     0.028 C 
ATOM      5  C   LIG d   1      -1.549  74.413 116.509  0.00  0.00    -0.047 C 
ATOM      6  C   LIG d   1      -1.198  75.703 117.284  0.00  0.00     0.091 C 
ENDROOT
BRANCH   1   7
ATOM      7  O   LIG d   1      -1.616  78.117 117.325  0.00  0.00    -0.368 OA
BRANCH   7   8
ATOM      8  C   LIG d   1      -2.019  77.856 118.691  0.00  0.00     0.119 C 
BRANCH   8   9
ATOM      9  C   LIG d   1      -3.420  78.468 118.886  0.00  0.00     0.028 C 
ATOM     10  C   LIG d   1      -4.541  77.425 118.750  0.00  0.00     0.006 C 
ENDBRANCH   8   9
BRANCH   8  11
ATOM     11  C   LIG d   1      -1.115  78.586 119.688  0.00  0.00     0.028 C 
ATOM     12  C   LIG d   1      -0.108  79.524 119.003  0.00  0.00     0.006 C 
ENDBRANCH   8  11
ENDBRANCH   7   8
ENDBRANCH   1   7
BRANCH   6  13
ATOM     13  N   LIG d   1       0.239  75.766 117.660  0.00  0.00    -0.311 N 
ATOM     14  C   LIG d   1       0.709  75.343 118.832  0.00  0.00     0.210 C 
ATOM     15  C   LIG d   1       2.219  75.517 119.024  0.00  0.00     0.109 C 
ATOM     16  O   LIG d   1       0.024  74.810 119.718  0.00  0.00    -0.276 OA
ATOM     17  H   LIG d   1       0.870  76.155 116.987  0.00  0.00     0.149 HD
ENDBRANCH   6  13
BRANCH   5  18
ATOM     18  N   LIG d   1      -1.363  73.188 117.310  0.00  0.00     0.381 N 
ATOM     19  H   LIG d   1      -2.237  72.910 117.710  0.00  0.00    -0.090 HD
ATOM     20  H   LIG d   1      -0.722  73.384 118.059  0.00  0.00    -0.090 HD
ATOM     21  H   LIG d   1      -1.004  72.457 116.737  0.00  0.00    -0.090 HD
ENDBRANCH   5  18
BRANCH   3  22
ATOM     22  C   LIG d   1      -4.367  75.613 114.475  0.00  0.00     0.382 C 
ATOM     23  O   LIG d   1      -5.126  76.600 114.323  0.00  0.00    -0.241 OA
ATOM     24  O   LIG d   1      -4.557  74.583 113.802  0.00  0.00    -0.241 OA
ENDBRANCH   3  22
TORSDOF 7
ENDMDL
MODEL 7
REMARK VINA RESULT:      -5.0     15.254     17.318
REMARK  7 active torsions:
REMARK  status: ('A' for Active; 'I' for Inactive)
REMARK    1  A    between atoms: C_2  and  C_3 
REMARK    2  A    between atoms: C_3  and  O_6 
REMARK    3  A    between atoms: C_3  and  C_4 
REMARK    4  A    between atoms: C_7  and  O_6 
REMARK    5  A    between atoms: C_9  and  C_10 
REMARK    6  A    between atoms: N_15  and  C_14 
REMARK    7  A    between atoms: N_20  and  C_19 
REMARK       I    between atoms: C_22  and  N_20 
ROOT
ATOM      1  C   LIG d   1      -2.425  77.362 116.582  0.00  0.00     0.161 C 
ATOM      2  C   LIG d   1      -3.492  76.495 116.297  0.00  0.00     0.016 C 
ATOM      3  C   LIG d   1      -3.376  75.373 115.444  0.00  0.00     0.038 C 
ATOM      4  C   LIG d   1      -2.138  74.953 114.935  0.00  0.00     0.028 C 
ATOM      5  C   LIG d   1      -1.128  76.086 114.788  0.00  0.00    -0.047 C 
ATOM      6  C   LIG d   1      -1.040  76.857 116.125  0.00  0.00     0.091 C 
ENDROOT
BRANCH   1   7
ATOM      7  O   LIG d   1      -2.406  77.668 117.991  0.00  0.00    -0.368 OA
BRANCH   7   8
ATOM      8  C   LIG d   1      -3.040  76.699 118.861  0.00  0.00     0.119 C 
BRANCH   8   9
ATOM      9  C   LIG d   1      -3.821  77.482 119.934  0.00  0.00     0.028 C 
ATOM     10  C   LIG d   1      -4.813  78.485 119.323  0.00  0.00     0.006 C 
ENDBRANCH   8   9
BRANCH   8  11
ATOM     11  C   LIG d   1      -2.001  75.879 119.633  0.00  0.00     0.028 C 
ATOM     12  C   LIG d   1      -1.738  74.504 119.000  0.00  0.00     0.006 C 
ENDBRANCH   8  11
ENDBRANCH   7   8
ENDBRANCH   1   7
BRANCH   6  13
ATOM     13  N   LIG d   1      -0.137  78.034 116.042  0.00  0.00    -0.311 N 
ATOM     14  C   LIG d   1       0.858  78.257 116.899  0.00  0.00     0.210 C 
ATOM     15  C   LIG d   1       1.656  79.540 116.645  0.00  0.00     0.109 C 
ATOM     16  O   LIG d   1       1.176  77.497 117.826  0.00  0.00    -0.276 OA
ATOM     17  H   LIG d   1      -0.304  78.686 115.300  0.00  0.00     0.149 HD
ENDBRANCH   6  13
BRANCH   5  18
ATOM     18  N   LIG d   1       0.157  75.487 114.380  0.00  0.00     0.381 N 
ATOM     19  H   LIG d   1      -0.008  74.734 113.742  0.00  0.00    -0.090 HD
ATOM     20  H   LIG d   1       0.616  75.117 115.194  0.00  0.00    -0.090 HD
ATOM     21  H   LIG d   1       0.733  76.177 113.949  0.00  0.00    -0.090 HD
ENDBRANCH   5  18
BRANCH   3  22
ATOM     22  C   LIG d   1      -4.515  74.681 115.061  0.00  0.00     0.382 C 
ATOM     23  O   LIG d   1      -5.345  74.311 115.926  0.00  0.00    -0.241 OA
ATOM     24  O   LIG d   1      -4.700  74.382 113.866  0.00  0.00    -0.241 OA
ENDBRANCH   3  22
TORSDOF 7
ENDMDL
MODEL 8
REMARK VINA RESULT:      -5.0      2.035      3.024
REMARK  7 active torsions:
REMARK  status: ('A' for Active; 'I' for Inactive)
REMARK    1  A    between atoms: C_2  and  C_3 
REMARK    2  A    between atoms: C_3  and  O_6 
REMARK    3  A    between atoms: C_3  and  C_4 
REMARK    4  A    between atoms: C_7  and  O_6 
REMARK    5  A    between atoms: C_9  and  C_10 
REMARK    6  A    between atoms: N_15  and  C_14 
REMARK    7  A    between atoms: N_20  and  C_19 
REMARK       I    between atoms: C_22  and  N_20 
ROOT
ATOM      1  C   LIG d   1      -4.669  91.569 117.458  0.00  0.00     0.161 C 
ATOM      2  C   LIG d   1      -5.482  90.823 116.589  0.00  0.00     0.016 C 
ATOM      3  C   LIG d   1      -6.644  91.342 115.972  0.00  0.00     0.038 C 
ATOM      4  C   LIG d   1      -6.989  92.699 116.066  0.00  0.00     0.028 C 
ATOM      5  C   LIG d   1      -6.480  93.367 117.338  0.00  0.00    -0.047 C 
ATOM      6  C   LIG d   1      -4.968  93.082 117.484  0.00  0.00     0.091 C 
ENDROOT
BRANCH   1   7
ATOM      7  O   LIG d   1      -3.281  91.337 117.148  0.00  0.00    -0.368 OA
BRANCH   7   8
ATOM      8  C   LIG d   1      -2.518  90.610 118.142  0.00  0.00     0.119 C 
BRANCH   8   9
ATOM      9  C   LIG d   1      -1.107  91.227 118.186  0.00  0.00     0.028 C 
ATOM     10  C   LIG d   1      -0.690  91.637 119.609  0.00  0.00     0.006 C 
ENDBRANCH   8   9
BRANCH   8  11
ATOM     11  C   LIG d   1      -2.309  89.151 117.725  0.00  0.00     0.028 C 
ATOM     12  C   LIG d   1      -2.228  88.194 118.926  0.00  0.00     0.006 C 
ENDBRANCH   8  11
ENDBRANCH   7   8
ENDBRANCH   1   7
BRANCH   6  13
ATOM     13  N   LIG d   1      -4.408  93.630 118.747  0.00  0.00    -0.311 N 
ATOM     14  C   LIG d   1      -3.245  94.276 118.814  0.00  0.00     0.210 C 
ATOM     15  C   LIG d   1      -2.843  94.740 120.217  0.00  0.00     0.109 C 
ATOM     16  O   LIG d   1      -2.523  94.536 117.839  0.00  0.00    -0.276 OA
ATOM     17  H   LIG d   1      -4.943  93.491 119.582  0.00  0.00     0.149 HD
ENDBRANCH   6  13
BRANCH   5  18
ATOM     18  N   LIG d   1      -6.791  94.806 117.241  0.00  0.00     0.381 N 
ATOM     19  H   LIG d   1      -7.531  94.949 116.583  0.00  0.00    -0.090 HD
ATOM     20  H   LIG d   1      -5.976  95.293 116.909  0.00  0.00    -0.090 HD
ATOM     21  H   LIG d   1      -7.057  95.159 118.134  0.00  0.00    -0.090 HD
ENDBRANCH   5  18
BRANCH   3  22
ATOM     22  C   LIG d   1      -7.496  90.492 115.285  0.00  0.00     0.382 C 
ATOM     23  O   LIG d   1      -7.024  89.554 114.596  0.00  0.00    -0.241 OA
ATOM     24  O   LIG d   1      -8.727  90.676 115.308  0.00  0.00    -0.241 OA
ENDBRANCH   3  22
TORSDOF 7
ENDMDL
MODEL 9
REMARK VINA RESULT:      -4.9     15.231     17.670
REMARK  7 active torsions:
REMARK  status: ('A' for Active; 'I' for Inactive)
REMARK    1  A    between atoms: C_2  and  C_3 
REMARK    2  A    between atoms: C_3  and  O_6 
REMARK    3  A    between atoms: C_3  and  C_4 
REMARK    4  A    between atoms: C_7  and  O_6 
REMARK    5  A    between atoms: C_9  and  C_10 
REMARK    6  A    between atoms: N_15  and  C_14 
REMARK    7  A    between atoms: N_20  and  C_19 
REMARK       I    between atoms: C_22  and  N_20 
ROOT
ATOM      1  C   LIG d   1      -2.629  76.405 117.749  0.00  0.00     0.161 C 
ATOM      2  C   LIG d   1      -3.491  75.531 117.064  0.00  0.00     0.016 C 
ATOM      3  C   LIG d   1      -3.489  75.379 115.659  0.00  0.00     0.038 C 
ATOM      4  C   LIG d   1      -2.516  75.983 114.849  0.00  0.00     0.028 C 
ATOM      5  C   LIG d   1      -1.945  77.267 115.442  0.00  0.00    -0.047 C 
ATOM      6  C   LIG d   1      -1.486  76.989 116.892  0.00  0.00     0.091 C 
ENDROOT
BRANCH   1   7
ATOM      7  O   LIG d   1      -2.095  75.750 118.916  0.00  0.00    -0.368 OA
BRANCH   7   8
ATOM      8  C   LIG d   1      -0.872  74.998 118.722  0.00  0.00     0.119 C 
BRANCH   8   9
ATOM      9  C   LIG d   1      -1.169  73.530 119.083  0.00  0.00     0.028 C 
ATOM     10  C   LIG d   1      -1.242  73.302 120.603  0.00  0.00     0.006 C 
ENDBRANCH   8   9
BRANCH   8  11
ATOM     11  C   LIG d   1       0.217  75.445 119.702  0.00  0.00     0.028 C 
ATOM     12  C   LIG d   1       1.636  75.253 119.143  0.00  0.00     0.006 C 
ENDBRANCH   8  11
ENDBRANCH   7   8
ENDBRANCH   1   7
BRANCH   6  13
ATOM     13  N   LIG d   1      -0.992  78.213 117.575  0.00  0.00    -0.311 N 
ATOM     14  C   LIG d   1       0.291  78.570 117.601  0.00  0.00     0.210 C 
ATOM     15  C   LIG d   1       0.588  79.857 118.377  0.00  0.00     0.109 C 
ATOM     16  O   LIG d   1       1.207  77.962 117.028  0.00  0.00    -0.276 OA
ATOM     17  H   LIG d   1      -1.672  78.782 118.039  0.00  0.00     0.149 HD
ENDBRANCH   6  13
BRANCH   5  18
ATOM     18  N   LIG d   1      -0.848  77.715 114.564  0.00  0.00     0.381 N 
ATOM     19  H   LIG d   1      -0.170  76.985 114.470  0.00  0.00    -0.090 HD
ATOM     20  H   LIG d   1      -0.399  78.509 114.984  0.00  0.00    -0.090 HD
ATOM     21  H   LIG d   1      -1.207  77.962 113.668  0.00  0.00    -0.090 HD
ENDBRANCH   5  18
BRANCH   3  22
ATOM     22  C   LIG d   1      -4.494  74.647 115.046  0.00  0.00     0.382 C 
ATOM     23  O   LIG d   1      -4.575  74.618 113.794  0.00  0.00    -0.241 OA
ATOM     24  O   LIG d   1      -5.348  74.051 115.729  0.00  0.00    -0.241 OA
ENDBRANCH   3  22
TORSDOF 7
ENDMDL
