MODEL 1
REMARK VINA RESULT:      -5.9      0.000      0.000
REMARK  7 active torsions:
REMARK  status: ('A' for Active; 'I' for Inactive)
REMARK    1  A    between atoms: C_2  and  C_3 
REMARK    2  A    between atoms: C_3  and  O_6 
REMARK    3  A    between atoms: C_3  and  C_4 
REMARK    4  A    between atoms: C_7  and  O_6 
REMARK    5  A    between atoms: C_9  and  C_10 
REMARK    6  A    between atoms: N_15  and  C_14 
REMARK    7  A    between atoms: N_20  and  C_19 
REMARK       I    between atoms: C_22  and  N_20 
ROOT
ATOM      1  C   LIG d   1      -5.866  92.661 117.323  0.00  0.00     0.161 C 
ATOM      2  C   LIG d   1      -6.934  91.852 116.898  0.00  0.00     0.016 C 
ATOM      3  C   LIG d   1      -6.781  90.499 116.518  0.00  0.00     0.038 C 
ATOM      4  C   LIG d   1      -5.568  89.815 116.681  0.00  0.00     0.028 C 
ATOM      5  C   LIG d   1      -4.347  90.727 116.630  0.00  0.00    -0.047 C 
ATOM      6  C   LIG d   1      -4.555  91.900 117.614  0.00  0.00     0.091 C 
ENDROOT
BRANCH   1   7
ATOM      7  O   LIG d   1      -6.265  93.431 118.474  0.00  0.00    -0.368 OA
BRANCH   7   8
ATOM      8  C   LIG d   1      -6.620  94.813 118.224  0.00  0.00     0.119 C 
BRANCH   8   9
ATOM      9  C   LIG d   1      -6.030  95.657 119.370  0.00  0.00     0.028 C 
ATOM     10  C   LIG d   1      -5.017  94.870 120.218  0.00  0.00     0.006 C 
ENDBRANCH   8   9
BRANCH   8  11
ATOM     11  C   LIG d   1      -8.136  95.022 118.305  0.00  0.00     0.028 C 
ATOM     12  C   LIG d   1      -8.826  94.021 119.245  0.00  0.00     0.006 C 
ENDBRANCH   8  11
ENDBRANCH   7   8
ENDBRANCH   1   7
BRANCH   6  13
ATOM     13  N   LIG d   1      -3.444  92.885 117.565  0.00  0.00    -0.311 N 
ATOM     14  C   LIG d   1      -2.391  92.845 118.381  0.00  0.00     0.210 C 
ATOM     15  C   LIG d   1      -1.370  93.967 118.175  0.00  0.00     0.109 C 
ATOM     16  O   LIG d   1      -2.191  91.967 119.233  0.00  0.00    -0.276 OA
ATOM     17  H   LIG d   1      -3.510  93.614 116.882  0.00  0.00     0.149 HD
ENDBRANCH   6  13
BRANCH   5  18
ATOM     18  N   LIG d   1      -3.164  89.906 116.952  0.00  0.00     0.381 N 
ATOM     19  H   LIG d   1      -2.362  90.494 117.056  0.00  0.00    -0.090 HD
ATOM     20  H   LIG d   1      -2.993  89.271 116.192  0.00  0.00    -0.090 HD
ATOM     21  H   LIG d   1      -3.322  89.395 117.793  0.00  0.00    -0.090 HD
ENDBRANCH   5  18
BRANCH   3  22
ATOM     22  C   LIG d   1      -7.842  89.828 115.929  0.00  0.00     0.382 C 
ATOM     23  O   LIG d   1      -8.321  90.240 114.845  0.00  0.00    -0.241 OA
ATOM     24  O   LIG d   1      -8.355  88.841 116.490  0.00  0.00    -0.241 OA
ENDBRANCH   3  22
TORSDOF 7
ENDMDL
MODEL 2
REMARK VINA RESULT:      -5.6      0.877      1.691
REMARK  7 active torsions:
REMARK  status: ('A' for Active; 'I' for Inactive)
REMARK    1  A    between atoms: C_2  and  C_3 
REMARK    2  A    between atoms: C_3  and  O_6 
REMARK    3  A    between atoms: C_3  and  C_4 
REMARK    4  A    between atoms: C_7  and  O_6 
REMARK    5  A    between atoms: C_9  and  C_10 
REMARK    6  A    between atoms: N_15  and  C_14 
REMARK    7  A    between atoms: N_20  and  C_19 
REMARK       I    between atoms: C_22  and  N_20 
ROOT
ATOM      1  C   LIG d   1      -6.068  92.479 118.075  0.00  0.00     0.161 C 
ATOM      2  C   LIG d   1      -7.061  91.673 117.494  0.00  0.00     0.016 C 
ATOM      3  C   LIG d   1      -6.778  90.508 116.745  0.00  0.00     0.038 C 
ATOM      4  C   LIG d   1      -5.481  89.983 116.653  0.00  0.00     0.028 C 
ATOM      5  C   LIG d   1      -4.389  91.037 116.799  0.00  0.00    -0.047 C 
ATOM      6  C   LIG d   1      -4.654  91.861 118.080  0.00  0.00     0.091 C 
ENDROOT
BRANCH   1   7
ATOM      7  O   LIG d   1      -6.459  92.847 119.413  0.00  0.00    -0.368 OA
BRANCH   7   8
ATOM      8  C   LIG d   1      -6.748  94.250 119.630  0.00  0.00     0.119 C 
BRANCH   8   9
ATOM      9  C   LIG d   1      -8.281  94.412 119.623  0.00  0.00     0.028 C 
ATOM     10  C   LIG d   1      -8.795  95.078 118.336  0.00  0.00     0.006 C 
ENDBRANCH   8   9
BRANCH   8  11
ATOM     11  C   LIG d   1      -6.245  95.109 118.466  0.00  0.00     0.028 C 
ATOM     12  C   LIG d   1      -5.315  96.244 118.923  0.00  0.00     0.006 C 
ENDBRANCH   8  11
ENDBRANCH   7   8
ENDBRANCH   1   7
BRANCH   6  13
ATOM     13  N   LIG d   1      -3.680  92.969 118.253  0.00  0.00    -0.311 N 
ATOM     14  C   LIG d   1      -2.997  93.176 119.378  0.00  0.00     0.210 C 
ATOM     15  C   LIG d   1      -2.059  94.387 119.352  0.00  0.00     0.109 C 
ATOM     16  O   LIG d   1      -3.055  92.452 120.384  0.00  0.00    -0.276 OA
ATOM     17  H   LIG d   1      -3.547  93.586 117.476  0.00  0.00     0.149 HD
ENDBRANCH   6  13
BRANCH   5  18
ATOM     18  N   LIG d   1      -3.091  90.335 116.822  0.00  0.00     0.381 N 
ATOM     19  H   LIG d   1      -3.128  89.577 117.474  0.00  0.00    -0.090 HD
ATOM     20  H   LIG d   1      -2.380  90.977 117.124  0.00  0.00    -0.090 HD
ATOM     21  H   LIG d   1      -2.874  89.991 115.913  0.00  0.00    -0.090 HD
ENDBRANCH   5  18
BRANCH   3  22
ATOM     22  C   LIG d   1      -7.795  89.877 116.044  0.00  0.00     0.382 C 
ATOM     23  O   LIG d   1      -8.191  90.351 114.952  0.00  0.00    -0.241 OA
ATOM     24  O   LIG d   1      -8.352  88.866 116.512  0.00  0.00    -0.241 OA
ENDBRANCH   3  22
TORSDOF 7
ENDMDL
MODEL 3
REMARK VINA RESULT:      -5.3      1.910      4.792
REMARK  7 active torsions:
REMARK  status: ('A' for Active; 'I' for Inactive)
REMARK    1  A    between atoms: C_2  and  C_3 
REMARK    2  A    between atoms: C_3  and  O_6 
REMARK    3  A    between atoms: C_3  and  C_4 
REMARK    4  A    between atoms: C_7  and  O_6 
REMARK    5  A    between atoms: C_9  and  C_10 
REMARK    6  A    between atoms: N_15  and  C_14 
REMARK    7  A    between atoms: N_20  and  C_19 
REMARK       I    between atoms: C_22  and  N_20 
ROOT
ATOM      1  C   LIG d   1      -6.328  92.163 119.056  0.00  0.00     0.161 C 
ATOM      2  C   LIG d   1      -7.566  92.813 118.923  0.00  0.00     0.016 C 
ATOM      3  C   LIG d   1      -7.698  94.211 118.758  0.00  0.00     0.038 C 
ATOM      4  C   LIG d   1      -6.585  95.042 118.561  0.00  0.00     0.028 C 
ATOM      5  C   LIG d   1      -5.306  94.501 119.191  0.00  0.00    -0.047 C 
ATOM      6  C   LIG d   1      -5.100  93.039 118.732  0.00  0.00     0.091 C 
ENDROOT
BRANCH   1   7
ATOM      7  O   LIG d   1      -6.316  90.966 118.252  0.00  0.00    -0.368 OA
BRANCH   7   8
ATOM      8  C   LIG d   1      -6.572  91.146 116.838  0.00  0.00     0.119 C 
BRANCH   8   9
ATOM      9  C   LIG d   1      -7.572  90.056 116.406  0.00  0.00     0.028 C 
ATOM     10  C   LIG d   1      -7.749  89.993 114.880  0.00  0.00     0.006 C 
ENDBRANCH   8   9
BRANCH   8  11
ATOM     11  C   LIG d   1      -5.311  90.891 116.006  0.00  0.00     0.028 C 
ATOM     12  C   LIG d   1      -4.401  89.815 116.619  0.00  0.00     0.006 C 
ENDBRANCH   8  11
ENDBRANCH   7   8
ENDBRANCH   1   7
BRANCH   6  13
ATOM     13  N   LIG d   1      -3.915  92.406 119.369  0.00  0.00    -0.311 N 
ATOM     14  C   LIG d   1      -2.721  92.332 118.785  0.00  0.00     0.210 C 
ATOM     15  C   LIG d   1      -1.642  91.621 119.607  0.00  0.00     0.109 C 
ATOM     16  O   LIG d   1      -2.444  92.815 117.677  0.00  0.00    -0.276 OA
ATOM     17  H   LIG d   1      -4.043  92.016 120.282  0.00  0.00     0.149 HD
ENDBRANCH   6  13
BRANCH   5  18
ATOM     18  N   LIG d   1      -4.201  95.393 118.792  0.00  0.00     0.381 N 
ATOM     19  H   LIG d   1      -4.168  96.185 119.402  0.00  0.00    -0.090 HD
ATOM     20  H   LIG d   1      -4.369  95.721 117.857  0.00  0.00    -0.090 HD
ATOM     21  H   LIG d   1      -3.335  94.901 118.828  0.00  0.00    -0.090 HD
ENDBRANCH   5  18
BRANCH   3  22
ATOM     22  C   LIG d   1      -8.953  94.796 118.828  0.00  0.00     0.382 C 
ATOM     23  O   LIG d   1      -9.948  94.107 119.157  0.00  0.00    -0.241 OA
ATOM     24  O   LIG d   1      -9.109  95.994 118.525  0.00  0.00    -0.241 OA
ENDBRANCH   3  22
TORSDOF 7
ENDMDL
MODEL 4
REMARK VINA RESULT:      -5.2      2.233      4.580
REMARK  7 active torsions:
REMARK  status: ('A' for Active; 'I' for Inactive)
REMARK    1  A    between atoms: C_2  and  C_3 
REMARK    2  A    between atoms: C_3  and  O_6 
REMARK    3  A    between atoms: C_3  and  C_4 
REMARK    4  A    between atoms: C_7  and  O_6 
REMARK    5  A    between atoms: C_9  and  C_10 
REMARK    6  A    between atoms: N_15  and  C_14 
REMARK    7  A    between atoms: N_20  and  C_19 
REMARK       I    between atoms: C_22  and  N_20 
ROOT
ATOM      1  C   LIG d   1      -4.362  90.539 117.621  0.00  0.00     0.161 C 
ATOM      2  C   LIG d   1      -5.377  89.921 116.872  0.00  0.00     0.016 C 
ATOM      3  C   LIG d   1      -6.539  90.595 116.431  0.00  0.00     0.038 C 
ATOM      4  C   LIG d   1      -6.694  91.981 116.582  0.00  0.00     0.028 C 
ATOM      5  C   LIG d   1      -5.931  92.550 117.773  0.00  0.00    -0.047 C 
ATOM      6  C   LIG d   1      -4.461  92.077 117.699  0.00  0.00     0.091 C 
ENDROOT
BRANCH   1   7
ATOM      7  O   LIG d   1      -3.071  90.146 117.113  0.00  0.00    -0.368 OA
BRANCH   7   8
ATOM      8  C   LIG d   1      -2.184  89.501 118.059  0.00  0.00     0.119 C 
BRANCH   8   9
ATOM      9  C   LIG d   1      -0.739  89.798 117.616  0.00  0.00     0.028 C 
ATOM     10  C   LIG d   1       0.166  90.200 118.793  0.00  0.00     0.006 C 
ENDBRANCH   8   9
BRANCH   8  11
ATOM     11  C   LIG d   1      -2.320  87.976 118.001  0.00  0.00     0.028 C 
ATOM     12  C   LIG d   1      -2.397  87.331 119.394  0.00  0.00     0.006 C 
ENDBRANCH   8  11
ENDBRANCH   7   8
ENDBRANCH   1   7
BRANCH   6  13
ATOM     13  N   LIG d   1      -3.663  92.520 118.872  0.00  0.00    -0.311 N 
ATOM     14  C   LIG d   1      -2.441  93.041 118.773  0.00  0.00     0.210 C 
ATOM     15  C   LIG d   1      -1.787  93.413 120.108  0.00  0.00     0.109 C 
ATOM     16  O   LIG d   1      -1.850  93.260 117.705  0.00  0.00    -0.276 OA
ATOM     17  H   LIG d   1      -4.080  92.408 119.776  0.00  0.00     0.149 HD
ENDBRANCH   6  13
BRANCH   5  18
ATOM     18  N   LIG d   1      -6.068  94.019 117.730  0.00  0.00     0.381 N 
ATOM     19  H   LIG d   1      -5.686  94.370 116.875  0.00  0.00    -0.090 HD
ATOM     20  H   LIG d   1      -5.550  94.416 118.494  0.00  0.00    -0.090 HD
ATOM     21  H   LIG d   1      -7.029  94.273 117.802  0.00  0.00    -0.090 HD
ENDBRANCH   5  18
BRANCH   3  22
ATOM     22  C   LIG d   1      -7.580  89.873 115.868  0.00  0.00     0.382 C 
ATOM     23  O   LIG d   1      -7.893  90.058 114.667  0.00  0.00    -0.241 OA
ATOM     24  O   LIG d   1      -8.238  89.071 116.556  0.00  0.00    -0.241 OA
ENDBRANCH   3  22
TORSDOF 7
ENDMDL
MODEL 5
REMARK VINA RESULT:      -5.1      2.005      4.360
REMARK  7 active torsions:
REMARK  status: ('A' for Active; 'I' for Inactive)
REMARK    1  A    between atoms: C_2  and  C_3 
REMARK    2  A    between atoms: C_3  and  O_6 
REMARK    3  A    between atoms: C_3  and  C_4 
REMARK    4  A    between atoms: C_7  and  O_6 
REMARK    5  A    between atoms: C_9  and  C_10 
REMARK    6  A    between atoms: N_15  and  C_14 
REMARK    7  A    between atoms: N_20  and  C_19 
REMARK       I    between atoms: C_22  and  N_20 
ROOT
ATOM      1  C   LIG d   1      -4.392  91.859 117.744  0.00  0.00     0.161 C 
ATOM      2  C   LIG d   1      -4.624  90.907 116.737  0.00  0.00     0.016 C 
ATOM      3  C   LIG d   1      -5.843  90.805 116.028  0.00  0.00     0.038 C 
ATOM      4  C   LIG d   1      -6.867  91.753 116.175  0.00  0.00     0.028 C 
ATOM      5  C   LIG d   1      -6.873  92.431 117.541  0.00  0.00    -0.047 C 
ATOM      6  C   LIG d   1      -5.456  92.971 117.840  0.00  0.00     0.091 C 
ENDROOT
BRANCH   1   7
ATOM      7  O   LIG d   1      -3.080  92.433 117.580  0.00  0.00    -0.368 OA
BRANCH   7   8
ATOM      8  C   LIG d   1      -2.102  92.088 118.591  0.00  0.00     0.119 C 
BRANCH   8   9
ATOM      9  C   LIG d   1      -1.581  93.404 119.201  0.00  0.00     0.028 C 
ATOM     10  C   LIG d   1      -2.069  93.615 120.644  0.00  0.00     0.006 C 
ENDBRANCH   8   9
BRANCH   8  11
ATOM     11  C   LIG d   1      -0.873  91.415 117.971  0.00  0.00     0.028 C 
ATOM     12  C   LIG d   1      -1.086  89.916 117.706  0.00  0.00     0.006 C 
ENDBRANCH   8  11
ENDBRANCH   7   8
ENDBRANCH   1   7
BRANCH   6  13
ATOM     13  N   LIG d   1      -5.354  93.576 119.193  0.00  0.00    -0.311 N 
ATOM     14  C   LIG d   1      -5.535  94.874 119.432  0.00  0.00     0.210 C 
ATOM     15  C   LIG d   1      -5.364  95.292 120.896  0.00  0.00     0.109 C 
ATOM     16  O   LIG d   1      -5.853  95.713 118.576  0.00  0.00    -0.276 OA
ATOM     17  H   LIG d   1      -5.131  92.962 119.952  0.00  0.00     0.149 HD
ENDBRANCH   6  13
BRANCH   5  18
ATOM     18  N   LIG d   1      -7.900  93.490 117.507  0.00  0.00     0.381 N 
ATOM     19  H   LIG d   1      -7.465  94.381 117.377  0.00  0.00    -0.090 HD
ATOM     20  H   LIG d   1      -8.384  93.501 118.388  0.00  0.00    -0.090 HD
ATOM     21  H   LIG d   1      -8.545  93.316 116.768  0.00  0.00    -0.090 HD
ENDBRANCH   5  18
BRANCH   3  22
ATOM     22  C   LIG d   1      -6.063  89.723 115.190  0.00  0.00     0.382 C 
ATOM     23  O   LIG d   1      -5.147  88.888 114.991  0.00  0.00    -0.241 OA
ATOM     24  O   LIG d   1      -7.150  89.594 114.596  0.00  0.00    -0.241 OA
ENDBRANCH   3  22
TORSDOF 7
ENDMDL
MODEL 6
REMARK VINA RESULT:      -4.8      1.807      2.084
REMARK  7 active torsions:
REMARK  status: ('A' for Active; 'I' for Inactive)
REMARK    1  A    between atoms: C_2  and  C_3 
REMARK    2  A    between atoms: C_3  and  O_6 
REMARK    3  A    between atoms: C_3  and  C_4 
REMARK    4  A    between atoms: C_7  and  O_6 
REMARK    5  A    between atoms: C_9  and  C_10 
REMARK    6  A    between atoms: N_15  and  C_14 
REMARK    7  A    between atoms: N_20  and  C_19 
REMARK       I    between atoms: C_22  and  N_20 
ROOT
ATOM      1  C   LIG d   1      -4.685  92.278 118.051  0.00  0.00     0.161 C 
ATOM      2  C   LIG d   1      -5.602  92.300 116.987  0.00  0.00     0.016 C 
ATOM      3  C   LIG d   1      -5.764  91.230 116.078  0.00  0.00     0.038 C 
ATOM      4  C   LIG d   1      -5.123  89.996 116.263  0.00  0.00     0.028 C 
ATOM      5  C   LIG d   1      -3.810  90.104 117.031  0.00  0.00    -0.047 C 
ATOM      6  C   LIG d   1      -4.056  90.897 118.335  0.00  0.00     0.091 C 
ENDROOT
BRANCH   1   7
ATOM      7  O   LIG d   1      -5.306  92.800 119.243  0.00  0.00    -0.368 OA
BRANCH   7   8
ATOM      8  C   LIG d   1      -5.951  94.090 119.112  0.00  0.00     0.119 C 
BRANCH   8   9
ATOM      9  C   LIG d   1      -5.058  95.129 119.818  0.00  0.00     0.028 C 
ATOM     10  C   LIG d   1      -5.030  96.478 119.080  0.00  0.00     0.006 C 
ENDBRANCH   8   9
BRANCH   8  11
ATOM     11  C   LIG d   1      -7.285  94.125 119.864  0.00  0.00     0.028 C 
ATOM     12  C   LIG d   1      -8.439  93.506 119.059  0.00  0.00     0.006 C 
ENDBRANCH   8  11
ENDBRANCH   7   8
ENDBRANCH   1   7
BRANCH   6  13
ATOM     13  N   LIG d   1      -2.806  91.122 119.106  0.00  0.00    -0.311 N 
ATOM     14  C   LIG d   1      -2.396  90.321 120.088  0.00  0.00     0.210 C 
ATOM     15  C   LIG d   1      -1.090  90.746 120.767  0.00  0.00     0.109 C 
ATOM     16  O   LIG d   1      -2.974  89.282 120.441  0.00  0.00    -0.276 OA
ATOM     17  H   LIG d   1      -2.259  91.926 118.865  0.00  0.00     0.149 HD
ENDBRANCH   6  13
BRANCH   5  18
ATOM     18  N   LIG d   1      -3.320  88.734 117.271  0.00  0.00     0.381 N 
ATOM     19  H   LIG d   1      -2.546  88.541 116.668  0.00  0.00    -0.090 HD
ATOM     20  H   LIG d   1      -4.056  88.084 117.059  0.00  0.00    -0.090 HD
ATOM     21  H   LIG d   1      -3.042  88.634 118.223  0.00  0.00    -0.090 HD
ENDBRANCH   5  18
BRANCH   3  22
ATOM     22  C   LIG d   1      -6.546  91.403 114.946  0.00  0.00     0.382 C 
ATOM     23  O   LIG d   1      -6.084  92.013 113.952  0.00  0.00    -0.241 OA
ATOM     24  O   LIG d   1      -7.723  90.995 114.923  0.00  0.00    -0.241 OA
ENDBRANCH   3  22
TORSDOF 7
ENDMDL
MODEL 7
REMARK VINA RESULT:      -4.6     14.661     16.417
REMARK  7 active torsions:
REMARK  status: ('A' for Active; 'I' for Inactive)
REMARK    1  A    between atoms: C_2  and  C_3 
REMARK    2  A    between atoms: C_3  and  O_6 
REMARK    3  A    between atoms: C_3  and  C_4 
REMARK    4  A    between atoms: C_7  and  O_6 
REMARK    5  A    between atoms: C_9  and  C_10 
REMARK    6  A    between atoms: N_15  and  C_14 
REMARK    7  A    between atoms: N_20  and  C_19 
REMARK       I    between atoms: C_22  and  N_20 
ROOT
ATOM      1  C   LIG d   1      -2.337  76.973 117.744  0.00  0.00     0.161 C 
ATOM      2  C   LIG d   1      -2.602  77.662 116.550  0.00  0.00     0.016 C 
ATOM      3  C   LIG d   1      -2.174  77.212 115.280  0.00  0.00     0.038 C 
ATOM      4  C   LIG d   1      -1.578  75.954 115.101  0.00  0.00     0.028 C 
ATOM      5  C   LIG d   1      -0.840  75.453 116.338  0.00  0.00    -0.047 C 
ATOM      6  C   LIG d   1      -1.785  75.544 117.558  0.00  0.00     0.091 C 
ENDROOT
BRANCH   1   7
ATOM      7  O   LIG d   1      -3.520  76.949 118.568  0.00  0.00    -0.368 OA
BRANCH   7   8
ATOM      8  C   LIG d   1      -4.007  78.236 119.020  0.00  0.00     0.119 C 
BRANCH   8   9
ATOM      9  C   LIG d   1      -3.685  78.351 120.523  0.00  0.00     0.028 C 
ATOM     10  C   LIG d   1      -3.478  76.978 121.185  0.00  0.00     0.006 C 
ENDBRANCH   8   9
BRANCH   8  11
ATOM     11  C   LIG d   1      -5.533  78.320 118.925  0.00  0.00     0.028 C 
ATOM     12  C   LIG d   1      -6.085  77.699 117.632  0.00  0.00     0.006 C 
ENDBRANCH   8  11
ENDBRANCH   7   8
ENDBRANCH   1   7
BRANCH   6  13
ATOM     13  N   LIG d   1      -1.115  75.151 118.825  0.00  0.00    -0.311 N 
ATOM     14  C   LIG d   1      -1.086  73.901 119.282  0.00  0.00     0.210 C 
ATOM     15  C   LIG d   1      -0.359  73.717 120.617  0.00  0.00     0.109 C 
ATOM     16  O   LIG d   1      -1.565  72.921 118.691  0.00  0.00    -0.276 OA
ATOM     17  H   LIG d   1      -0.674  75.879 119.352  0.00  0.00     0.149 HD
ENDBRANCH   6  13
BRANCH   5  18
ATOM     18  N   LIG d   1      -0.387  74.077 116.059  0.00  0.00     0.381 N 
ATOM     19  H   LIG d   1       0.607  74.065 115.943  0.00  0.00    -0.090 HD
ATOM     20  H   LIG d   1      -0.808  73.763 115.202  0.00  0.00    -0.090 HD
ATOM     21  H   LIG d   1      -0.649  73.474 116.807  0.00  0.00    -0.090 HD
ENDBRANCH   5  18
BRANCH   3  22
ATOM     22  C   LIG d   1      -2.305  78.041 114.176  0.00  0.00     0.382 C 
ATOM     23  O   LIG d   1      -1.887  77.664 113.055  0.00  0.00    -0.241 OA
ATOM     24  O   LIG d   1      -2.797  79.179 114.296  0.00  0.00    -0.241 OA
ENDBRANCH   3  22
TORSDOF 7
ENDMDL
MODEL 8
REMARK VINA RESULT:      -4.6      2.221      4.590
REMARK  7 active torsions:
REMARK  status: ('A' for Active; 'I' for Inactive)
REMARK    1  A    between atoms: C_2  and  C_3 
REMARK    2  A    between atoms: C_3  and  O_6 
REMARK    3  A    between atoms: C_3  and  C_4 
REMARK    4  A    between atoms: C_7  and  O_6 
REMARK    5  A    between atoms: C_9  and  C_10 
REMARK    6  A    between atoms: N_15  and  C_14 
REMARK    7  A    between atoms: N_20  and  C_19 
REMARK       I    between atoms: C_22  and  N_20 
ROOT
ATOM      1  C   LIG d   1      -4.457  90.589 117.908  0.00  0.00     0.161 C 
ATOM      2  C   LIG d   1      -5.330  89.965 117.002  0.00  0.00     0.016 C 
ATOM      3  C   LIG d   1      -6.624  90.453 116.707  0.00  0.00     0.038 C 
ATOM      4  C   LIG d   1      -7.077  91.691 117.187  0.00  0.00     0.028 C 
ATOM      5  C   LIG d   1      -6.426  92.105 118.502  0.00  0.00    -0.047 C 
ATOM      6  C   LIG d   1      -4.890  92.001 118.356  0.00  0.00     0.091 C 
ENDROOT
BRANCH   1   7
ATOM      7  O   LIG d   1      -3.125  90.626 117.356  0.00  0.00    -0.368 OA
BRANCH   7   8
ATOM      8  C   LIG d   1      -2.139  89.794 118.015  0.00  0.00     0.119 C 
BRANCH   8   9
ATOM      9  C   LIG d   1      -2.879  88.942 119.064  0.00  0.00     0.028 C 
ATOM     10  C   LIG d   1      -2.377  87.489 119.100  0.00  0.00     0.006 C 
ENDBRANCH   8   9
BRANCH   8  11
ATOM     11  C   LIG d   1      -1.140  90.639 118.811  0.00  0.00     0.028 C 
ATOM     12  C   LIG d   1      -0.755  91.942 118.091  0.00  0.00     0.006 C 
ENDBRANCH   8  11
ENDBRANCH   7   8
ENDBRANCH   1   7
BRANCH   6  13
ATOM     13  N   LIG d   1      -4.179  92.308 119.624  0.00  0.00    -0.311 N 
ATOM     14  C   LIG d   1      -3.710  93.518 119.927  0.00  0.00     0.210 C 
ATOM     15  C   LIG d   1      -2.990  93.613 121.276  0.00  0.00     0.109 C 
ATOM     16  O   LIG d   1      -3.851  94.528 119.222  0.00  0.00    -0.276 OA
ATOM     17  H   LIG d   1      -4.048  91.553 120.269  0.00  0.00     0.149 HD
ENDBRANCH   6  13
BRANCH   5  18
ATOM     18  N   LIG d   1      -6.885  93.472 118.815  0.00  0.00     0.381 N 
ATOM     19  H   LIG d   1      -7.810  93.440 119.194  0.00  0.00    -0.090 HD
ATOM     20  H   LIG d   1      -6.910  94.009 117.966  0.00  0.00    -0.090 HD
ATOM     21  H   LIG d   1      -6.265  93.898 119.469  0.00  0.00    -0.090 HD
ENDBRANCH   5  18
BRANCH   3  22
ATOM     22  C   LIG d   1      -7.495  89.679 115.954  0.00  0.00     0.382 C 
ATOM     23  O   LIG d   1      -8.342  88.952 116.527  0.00  0.00    -0.241 OA
ATOM     24  O   LIG d   1      -7.415  89.666 114.712  0.00  0.00    -0.241 OA
ENDBRANCH   3  22
TORSDOF 7
ENDMDL
MODEL 9
REMARK VINA RESULT:      -4.5     26.781     29.783
REMARK  7 active torsions:
REMARK  status: ('A' for Active; 'I' for Inactive)
REMARK    1  A    between atoms: C_2  and  C_3 
REMARK    2  A    between atoms: C_3  and  O_6 
REMARK    3  A    between atoms: C_3  and  C_4 
REMARK    4  A    between atoms: C_7  and  O_6 
REMARK    5  A    between atoms: C_9  and  C_10 
REMARK    6  A    between atoms: N_15  and  C_14 
REMARK    7  A    between atoms: N_20  and  C_19 
REMARK       I    between atoms: C_22  and  N_20 
ROOT
ATOM      1  C   LIG d   1     -15.856  65.400 116.791  0.00  0.00     0.161 C 
ATOM      2  C   LIG d   1     -15.216  65.986 117.895  0.00  0.00     0.016 C 
ATOM      3  C   LIG d   1     -15.809  66.989 118.696  0.00  0.00     0.038 C 
ATOM      4  C   LIG d   1     -17.150  67.369 118.536  0.00  0.00     0.028 C 
ATOM      5  C   LIG d   1     -17.672  67.167 117.117  0.00  0.00    -0.047 C 
ATOM      6  C   LIG d   1     -17.360  65.721 116.669  0.00  0.00     0.091 C 
ENDROOT
BRANCH   1   7
ATOM      7  O   LIG d   1     -15.648  63.974 116.806  0.00  0.00    -0.368 OA
BRANCH   7   8
ATOM      8  C   LIG d   1     -16.120  63.274 117.984  0.00  0.00     0.119 C 
BRANCH   8   9
ATOM      9  C   LIG d   1     -15.049  62.234 118.365  0.00  0.00     0.028 C 
ATOM     10  C   LIG d   1     -14.072  62.762 119.430  0.00  0.00     0.006 C 
ENDBRANCH   8   9
BRANCH   8  11
ATOM     11  C   LIG d   1     -17.383  62.462 117.680  0.00  0.00     0.028 C 
ATOM     12  C   LIG d   1     -17.319  61.746 116.321  0.00  0.00     0.006 C 
ENDBRANCH   8  11
ENDBRANCH   7   8
ENDBRANCH   1   7
BRANCH   6  13
ATOM     13  N   LIG d   1     -17.762  65.465 115.261  0.00  0.00    -0.311 N 
ATOM     14  C   LIG d   1     -18.905  64.873 114.921  0.00  0.00     0.210 C 
ATOM     15  C   LIG d   1     -19.115  64.688 113.415  0.00  0.00     0.109 C 
ATOM     16  O   LIG d   1     -19.780  64.511 115.722  0.00  0.00    -0.276 OA
ATOM     17  H   LIG d   1     -17.125  65.755 114.545  0.00  0.00     0.149 HD
ENDBRANCH   6  13
BRANCH   5  18
ATOM     18  N   LIG d   1     -19.115  67.471 117.126  0.00  0.00     0.381 N 
ATOM     19  H   LIG d   1     -19.490  67.311 118.039  0.00  0.00    -0.090 HD
ATOM     20  H   LIG d   1     -19.581  66.856 116.482  0.00  0.00    -0.090 HD
ATOM     21  H   LIG d   1     -19.266  68.419 116.859  0.00  0.00    -0.090 HD
ENDBRANCH   5  18
BRANCH   3  22
ATOM     22  C   LIG d   1     -15.046  67.653 119.644  0.00  0.00     0.382 C 
ATOM     23  O   LIG d   1     -15.605  68.232 120.606  0.00  0.00    -0.241 OA
ATOM     24  O   LIG d   1     -13.807  67.717 119.526  0.00  0.00    -0.241 OA
ENDBRANCH   3  22
TORSDOF 7
ENDMDL
