MODEL 1
REMARK VINA RESULT:      -5.3      0.000      0.000
REMARK  7 active torsions:
REMARK  status: ('A' for Active; 'I' for Inactive)
REMARK    1  A    between atoms: C_2  and  C_3 
REMARK    2  A    between atoms: C_3  and  O_6 
REMARK    3  A    between atoms: C_3  and  C_4 
REMARK    4  A    between atoms: C_7  and  O_6 
REMARK    5  A    between atoms: C_9  and  C_10 
REMARK    6  A    between atoms: N_15  and  C_14 
REMARK    7  A    between atoms: N_20  and  C_19 
REMARK       I    between atoms: C_22  and  N_20 
ROOT
ATOM      1  C   LIG d   1      -6.161  77.339 116.884  0.00  0.00     0.161 C 
ATOM      2  C   LIG d   1      -7.484  76.882 116.998  0.00  0.00     0.016 C 
ATOM      3  C   LIG d   1      -8.447  77.486 117.840  0.00  0.00     0.038 C 
ATOM      4  C   LIG d   1      -8.190  78.689 118.514  0.00  0.00     0.028 C 
ATOM      5  C   LIG d   1      -6.713  78.907 118.825  0.00  0.00    -0.047 C 
ATOM      6  C   LIG d   1      -5.894  78.716 117.527  0.00  0.00     0.091 C 
ENDROOT
BRANCH   1   7
ATOM      7  O   LIG d   1      -5.765  77.349 115.498  0.00  0.00    -0.368 OA
BRANCH   7   8
ATOM      8  C   LIG d   1      -4.781  76.358 115.109  0.00  0.00     0.119 C 
BRANCH   8   9
ATOM      9  C   LIG d   1      -5.505  75.297 114.258  0.00  0.00     0.028 C 
ATOM     10  C   LIG d   1      -6.045  74.133 115.106  0.00  0.00     0.006 C 
ENDBRANCH   8   9
BRANCH   8  11
ATOM     11  C   LIG d   1      -4.240  75.603 116.326  0.00  0.00     0.028 C 
ATOM     12  C   LIG d   1      -2.706  75.624 116.407  0.00  0.00     0.006 C 
ENDBRANCH   8  11
ENDBRANCH   7   8
ENDBRANCH   1   7
BRANCH   6  13
ATOM     13  N   LIG d   1      -4.431  78.828 117.759  0.00  0.00    -0.311 N 
ATOM     14  C   LIG d   1      -3.607  79.480 116.940  0.00  0.00     0.210 C 
ATOM     15  C   LIG d   1      -2.132  79.457 117.354  0.00  0.00     0.109 C 
ATOM     16  O   LIG d   1      -3.962  80.101 115.927  0.00  0.00    -0.276 OA
ATOM     17  H   LIG d   1      -4.062  78.380 118.575  0.00  0.00     0.149 HD
ENDBRANCH   6  13
BRANCH   5  18
ATOM     18  N   LIG d   1      -6.573  80.256 119.403  0.00  0.00     0.381 N 
ATOM     19  H   LIG d   1      -5.866  80.764 118.911  0.00  0.00    -0.090 HD
ATOM     20  H   LIG d   1      -6.290  80.171 120.364  0.00  0.00    -0.090 HD
ATOM     21  H   LIG d   1      -7.441  80.743 119.347  0.00  0.00    -0.090 HD
ENDBRANCH   5  18
BRANCH   3  22
ATOM     22  C   LIG d   1      -9.669  76.864 118.044  0.00  0.00     0.382 C 
ATOM     23  O   LIG d   1      -9.874  75.718 117.577  0.00  0.00    -0.241 OA
ATOM     24  O   LIG d   1     -10.584  77.452 118.651  0.00  0.00    -0.241 OA
ENDBRANCH   3  22
TORSDOF 7
ENDMDL
MODEL 2
REMARK VINA RESULT:      -5.3      1.485      1.583
REMARK  7 active torsions:
REMARK  status: ('A' for Active; 'I' for Inactive)
REMARK    1  A    between atoms: C_2  and  C_3 
REMARK    2  A    between atoms: C_3  and  O_6 
REMARK    3  A    between atoms: C_3  and  C_4 
REMARK    4  A    between atoms: C_7  and  O_6 
REMARK    5  A    between atoms: C_9  and  C_10 
REMARK    6  A    between atoms: N_15  and  C_14 
REMARK    7  A    between atoms: N_20  and  C_19 
REMARK       I    between atoms: C_22  and  N_20 
ROOT
ATOM      1  C   LIG d   1      -6.221  77.339 117.056  0.00  0.00     0.161 C 
ATOM      2  C   LIG d   1      -7.248  76.388 116.944  0.00  0.00     0.016 C 
ATOM      3  C   LIG d   1      -8.511  76.530 117.564  0.00  0.00     0.038 C 
ATOM      4  C   LIG d   1      -8.887  77.712 118.219  0.00  0.00     0.028 C 
ATOM      5  C   LIG d   1      -7.705  78.492 118.786  0.00  0.00    -0.047 C 
ATOM      6  C   LIG d   1      -6.651  78.686 117.673  0.00  0.00     0.091 C 
ENDROOT
BRANCH   1   7
ATOM      7  O   LIG d   1      -5.609  77.551 115.768  0.00  0.00    -0.368 OA
BRANCH   7   8
ATOM      8  C   LIG d   1      -4.280  77.000 115.595  0.00  0.00     0.119 C 
BRANCH   8   9
ATOM      9  C   LIG d   1      -4.394  75.812 114.621  0.00  0.00     0.028 C 
ATOM     10  C   LIG d   1      -5.568  75.968 113.640  0.00  0.00     0.006 C 
ENDBRANCH   8   9
BRANCH   8  11
ATOM     11  C   LIG d   1      -3.750  76.403 116.902  0.00  0.00     0.028 C 
ATOM     12  C   LIG d   1      -3.241  74.962 116.736  0.00  0.00     0.006 C 
ENDBRANCH   8  11
ENDBRANCH   7   8
ENDBRANCH   1   7
BRANCH   6  13
ATOM     13  N   LIG d   1      -5.425  79.367 118.166  0.00  0.00    -0.311 N 
ATOM     14  C   LIG d   1      -5.199  80.671 118.014  0.00  0.00     0.210 C 
ATOM     15  C   LIG d   1      -3.864  81.166 118.578  0.00  0.00     0.109 C 
ATOM     16  O   LIG d   1      -5.992  81.470 117.494  0.00  0.00    -0.276 OA
ATOM     17  H   LIG d   1      -4.742  78.799 118.628  0.00  0.00     0.149 HD
ENDBRANCH   6  13
BRANCH   5  18
ATOM     18  N   LIG d   1      -8.226  79.766 119.318  0.00  0.00     0.381 N 
ATOM     19  H   LIG d   1      -8.091  80.494 118.645  0.00  0.00    -0.090 HD
ATOM     20  H   LIG d   1      -7.714  80.005 120.149  0.00  0.00    -0.090 HD
ATOM     21  H   LIG d   1      -9.195  79.675 119.530  0.00  0.00    -0.090 HD
ENDBRANCH   5  18
BRANCH   3  22
ATOM     22  C   LIG d   1      -9.398  75.464 117.567  0.00  0.00     0.382 C 
ATOM     23  O   LIG d   1      -8.965  74.287 117.592  0.00  0.00    -0.241 OA
ATOM     24  O   LIG d   1     -10.626  75.665 117.502  0.00  0.00    -0.241 OA
ENDBRANCH   3  22
TORSDOF 7
ENDMDL
MODEL 3
REMARK VINA RESULT:      -5.3      2.686      6.177
REMARK  7 active torsions:
REMARK  status: ('A' for Active; 'I' for Inactive)
REMARK    1  A    between atoms: C_2  and  C_3 
REMARK    2  A    between atoms: C_3  and  O_6 
REMARK    3  A    between atoms: C_3  and  C_4 
REMARK    4  A    between atoms: C_7  and  O_6 
REMARK    5  A    between atoms: C_9  and  C_10 
REMARK    6  A    between atoms: N_15  and  C_14 
REMARK    7  A    between atoms: N_20  and  C_19 
REMARK       I    between atoms: C_22  and  N_20 
ROOT
ATOM      1  C   LIG d   1      -7.159  79.186 118.024  0.00  0.00     0.161 C 
ATOM      2  C   LIG d   1      -6.150  78.784 117.133  0.00  0.00     0.016 C 
ATOM      3  C   LIG d   1      -6.048  77.474 116.612  0.00  0.00     0.038 C 
ATOM      4  C   LIG d   1      -7.044  76.510 116.830  0.00  0.00     0.028 C 
ATOM      5  C   LIG d   1      -7.815  76.718 118.129  0.00  0.00    -0.047 C 
ATOM      6  C   LIG d   1      -8.317  78.179 118.186  0.00  0.00     0.091 C 
ENDROOT
BRANCH   1   7
ATOM      7  O   LIG d   1      -7.668  80.477 117.636  0.00  0.00    -0.368 OA
BRANCH   7   8
ATOM      8  C   LIG d   1      -7.638  81.507 118.655  0.00  0.00     0.119 C 
BRANCH   8   9
ATOM      9  C   LIG d   1      -8.829  82.449 118.397  0.00  0.00     0.028 C 
ATOM     10  C   LIG d   1     -10.105  81.687 118.001  0.00  0.00     0.006 C 
ENDBRANCH   8   9
BRANCH   8  11
ATOM     11  C   LIG d   1      -6.390  82.385 118.523  0.00  0.00     0.028 C 
ATOM     12  C   LIG d   1      -5.521  82.380 119.791  0.00  0.00     0.006 C 
ENDBRANCH   8  11
ENDBRANCH   7   8
ENDBRANCH   1   7
BRANCH   6  13
ATOM     13  N   LIG d   1      -9.009  78.491 119.464  0.00  0.00    -0.311 N 
ATOM     14  C   LIG d   1     -10.290  78.206 119.692  0.00  0.00     0.210 C 
ATOM     15  C   LIG d   1     -10.812  78.631 121.068  0.00  0.00     0.109 C 
ATOM     16  O   LIG d   1     -11.035  77.612 118.898  0.00  0.00    -0.276 OA
ATOM     17  H   LIG d   1      -8.471  78.945 120.175  0.00  0.00     0.149 HD
ENDBRANCH   6  13
BRANCH   5  18
ATOM     18  N   LIG d   1      -8.908  75.729 118.162  0.00  0.00     0.381 N 
ATOM     19  H   LIG d   1      -8.860  75.143 117.352  0.00  0.00    -0.090 HD
ATOM     20  H   LIG d   1      -9.788  76.215 118.147  0.00  0.00    -0.090 HD
ATOM     21  H   LIG d   1      -8.841  75.174 118.986  0.00  0.00    -0.090 HD
ENDBRANCH   5  18
BRANCH   3  22
ATOM     22  C   LIG d   1      -4.920  77.105 115.895  0.00  0.00     0.382 C 
ATOM     23  O   LIG d   1      -4.203  77.984 115.359  0.00  0.00    -0.241 OA
ATOM     24  O   LIG d   1      -4.635  75.902 115.741  0.00  0.00    -0.241 OA
ENDBRANCH   3  22
TORSDOF 7
ENDMDL
MODEL 4
REMARK VINA RESULT:      -5.0     13.641     15.845
REMARK  7 active torsions:
REMARK  status: ('A' for Active; 'I' for Inactive)
REMARK    1  A    between atoms: C_2  and  C_3 
REMARK    2  A    between atoms: C_3  and  O_6 
REMARK    3  A    between atoms: C_3  and  C_4 
REMARK    4  A    between atoms: C_7  and  O_6 
REMARK    5  A    between atoms: C_9  and  C_10 
REMARK    6  A    between atoms: N_15  and  C_14 
REMARK    7  A    between atoms: N_20  and  C_19 
REMARK       I    between atoms: C_22  and  N_20 
ROOT
ATOM      1  C   LIG d   1     -14.715  65.874 117.295  0.00  0.00     0.161 C 
ATOM      2  C   LIG d   1     -14.589  66.988 116.449  0.00  0.00     0.016 C 
ATOM      3  C   LIG d   1     -15.119  67.034 115.138  0.00  0.00     0.038 C 
ATOM      4  C   LIG d   1     -15.947  66.019 114.638  0.00  0.00     0.028 C 
ATOM      5  C   LIG d   1     -15.683  64.656 115.268  0.00  0.00    -0.047 C 
ATOM      6  C   LIG d   1     -15.711  64.801 116.807  0.00  0.00     0.091 C 
ENDROOT
BRANCH   1   7
ATOM      7  O   LIG d   1     -15.059  66.308 118.626  0.00  0.00    -0.368 OA
BRANCH   7   8
ATOM      8  C   LIG d   1     -13.956  66.457 119.553  0.00  0.00     0.119 C 
BRANCH   8   9
ATOM      9  C   LIG d   1     -13.901  65.182 120.416  0.00  0.00     0.028 C 
ATOM     10  C   LIG d   1     -12.672  64.313 120.102  0.00  0.00     0.006 C 
ENDBRANCH   8   9
BRANCH   8  11
ATOM     11  C   LIG d   1     -14.206  67.603 120.537  0.00  0.00     0.028 C 
ATOM     12  C   LIG d   1     -15.679  68.042 120.579  0.00  0.00     0.006 C 
ENDBRANCH   8  11
ENDBRANCH   7   8
ENDBRANCH   1   7
BRANCH   6  13
ATOM     13  N   LIG d   1     -15.379  63.530 117.502  0.00  0.00    -0.311 N 
ATOM     14  C   LIG d   1     -16.135  63.000 118.461  0.00  0.00     0.210 C 
ATOM     15  C   LIG d   1     -15.600  61.695 119.060  0.00  0.00     0.109 C 
ATOM     16  O   LIG d   1     -17.215  63.469 118.851  0.00  0.00    -0.276 OA
ATOM     17  H   LIG d   1     -14.535  63.066 117.226  0.00  0.00     0.149 HD
ENDBRANCH   6  13
BRANCH   5  18
ATOM     18  N   LIG d   1     -16.705  63.723 114.757  0.00  0.00     0.381 N 
ATOM     19  H   LIG d   1     -17.467  63.668 115.403  0.00  0.00    -0.090 HD
ATOM     20  H   LIG d   1     -16.298  62.808 114.672  0.00  0.00    -0.090 HD
ATOM     21  H   LIG d   1     -17.035  64.031 113.869  0.00  0.00    -0.090 HD
ENDBRANCH   5  18
BRANCH   3  22
ATOM     22  C   LIG d   1     -14.787  68.087 114.300  0.00  0.00     0.382 C 
ATOM     23  O   LIG d   1     -14.817  67.931 113.055  0.00  0.00    -0.241 OA
ATOM     24  O   LIG d   1     -14.416  69.178 114.772  0.00  0.00    -0.241 OA
ENDBRANCH   3  22
TORSDOF 7
ENDMDL
MODEL 5
REMARK VINA RESULT:      -4.9     13.667     16.041
REMARK  7 active torsions:
REMARK  status: ('A' for Active; 'I' for Inactive)
REMARK    1  A    between atoms: C_2  and  C_3 
REMARK    2  A    between atoms: C_3  and  O_6 
REMARK    3  A    between atoms: C_3  and  C_4 
REMARK    4  A    between atoms: C_7  and  O_6 
REMARK    5  A    between atoms: C_9  and  C_10 
REMARK    6  A    between atoms: N_15  and  C_14 
REMARK    7  A    between atoms: N_20  and  C_19 
REMARK       I    between atoms: C_22  and  N_20 
ROOT
ATOM      1  C   LIG d   1     -14.544  66.023 117.394  0.00  0.00     0.161 C 
ATOM      2  C   LIG d   1     -14.456  67.083 116.476  0.00  0.00     0.016 C 
ATOM      3  C   LIG d   1     -15.071  67.063 115.203  0.00  0.00     0.038 C 
ATOM      4  C   LIG d   1     -15.948  66.038 114.819  0.00  0.00     0.028 C 
ATOM      5  C   LIG d   1     -15.665  64.709 115.511  0.00  0.00    -0.047 C 
ATOM      6  C   LIG d   1     -15.588  64.944 117.037  0.00  0.00     0.091 C 
ENDROOT
BRANCH   1   7
ATOM      7  O   LIG d   1     -14.792  66.541 118.716  0.00  0.00    -0.368 OA
BRANCH   7   8
ATOM      8  C   LIG d   1     -16.160  66.918 119.008  0.00  0.00     0.119 C 
BRANCH   8   9
ATOM      9  C   LIG d   1     -16.158  68.412 119.386  0.00  0.00     0.028 C 
ATOM     10  C   LIG d   1     -17.473  68.850 120.053  0.00  0.00     0.006 C 
ENDBRANCH   8   9
BRANCH   8  11
ATOM     11  C   LIG d   1     -16.688  66.187 120.246  0.00  0.00     0.028 C 
ATOM     12  C   LIG d   1     -15.577  65.485 121.042  0.00  0.00     0.006 C 
ENDBRANCH   8  11
ENDBRANCH   7   8
ENDBRANCH   1   7
BRANCH   6  13
ATOM     13  N   LIG d   1     -15.231  63.709 117.784  0.00  0.00    -0.311 N 
ATOM     14  C   LIG d   1     -16.133  62.899 118.335  0.00  0.00     0.210 C 
ATOM     15  C   LIG d   1     -15.550  61.692 119.076  0.00  0.00     0.109 C 
ATOM     16  O   LIG d   1     -17.361  63.049 118.253  0.00  0.00    -0.276 OA
ATOM     17  H   LIG d   1     -14.257  63.495 117.872  0.00  0.00     0.149 HD
ENDBRANCH   6  13
BRANCH   5  18
ATOM     18  N   LIG d   1     -16.734  63.769 115.125  0.00  0.00     0.381 N 
ATOM     19  H   LIG d   1     -17.511  64.275 114.750  0.00  0.00    -0.090 HD
ATOM     20  H   LIG d   1     -17.044  63.274 115.943  0.00  0.00    -0.090 HD
ATOM     21  H   LIG d   1     -16.392  63.123 114.448  0.00  0.00    -0.090 HD
ENDBRANCH   5  18
BRANCH   3  22
ATOM     22  C   LIG d   1     -14.779  68.059 114.284  0.00  0.00     0.382 C 
ATOM     23  O   LIG d   1     -14.888  67.829 113.055  0.00  0.00    -0.241 OA
ATOM     24  O   LIG d   1     -14.366  69.171 114.666  0.00  0.00    -0.241 OA
ENDBRANCH   3  22
TORSDOF 7
ENDMDL
MODEL 6
REMARK VINA RESULT:      -4.9     13.729     16.237
REMARK  7 active torsions:
REMARK  status: ('A' for Active; 'I' for Inactive)
REMARK    1  A    between atoms: C_2  and  C_3 
REMARK    2  A    between atoms: C_3  and  O_6 
REMARK    3  A    between atoms: C_3  and  C_4 
REMARK    4  A    between atoms: C_7  and  O_6 
REMARK    5  A    between atoms: C_9  and  C_10 
REMARK    6  A    between atoms: N_15  and  C_14 
REMARK    7  A    between atoms: N_20  and  C_19 
REMARK       I    between atoms: C_22  and  N_20 
ROOT
ATOM      1  C   LIG d   1     -16.025  65.204 116.379  0.00  0.00     0.161 C 
ATOM      2  C   LIG d   1     -15.732  66.012 115.267  0.00  0.00     0.016 C 
ATOM      3  C   LIG d   1     -14.822  67.094 115.309  0.00  0.00     0.038 C 
ATOM      4  C   LIG d   1     -14.024  67.348 116.435  0.00  0.00     0.028 C 
ATOM      5  C   LIG d   1     -14.651  66.873 117.741  0.00  0.00    -0.047 C 
ATOM      6  C   LIG d   1     -15.081  65.397 117.584  0.00  0.00     0.091 C 
ENDROOT
BRANCH   1   7
ATOM      7  O   LIG d   1     -16.054  63.819 115.982  0.00  0.00    -0.368 OA
BRANCH   7   8
ATOM      8  C   LIG d   1     -17.363  63.202 115.919  0.00  0.00     0.119 C 
BRANCH   8   9
ATOM      9  C   LIG d   1     -17.756  63.100 114.432  0.00  0.00     0.028 C 
ATOM     10  C   LIG d   1     -17.751  61.649 113.922  0.00  0.00     0.006 C 
ENDBRANCH   8   9
BRANCH   8  11
ATOM     11  C   LIG d   1     -18.431  64.093 116.560  0.00  0.00     0.028 C 
ATOM     12  C   LIG d   1     -19.613  64.377 115.619  0.00  0.00     0.006 C 
ENDBRANCH   8  11
ENDBRANCH   7   8
ENDBRANCH   1   7
BRANCH   6  13
ATOM     13  N   LIG d   1     -15.780  64.879 118.790  0.00  0.00    -0.311 N 
ATOM     14  C   LIG d   1     -15.163  64.219 119.768  0.00  0.00     0.210 C 
ATOM     15  C   LIG d   1     -16.073  63.755 120.910  0.00  0.00     0.109 C 
ATOM     16  O   LIG d   1     -13.943  64.002 119.815  0.00  0.00    -0.276 OA
ATOM     17  H   LIG d   1     -16.767  65.038 118.848  0.00  0.00     0.149 HD
ENDBRANCH   6  13
BRANCH   5  18
ATOM     18  N   LIG d   1     -13.656  67.075 118.812  0.00  0.00     0.381 N 
ATOM     19  H   LIG d   1     -13.677  66.299 119.444  0.00  0.00    -0.090 HD
ATOM     20  H   LIG d   1     -13.894  67.906 119.324  0.00  0.00    -0.090 HD
ATOM     21  H   LIG d   1     -12.746  67.168 118.418  0.00  0.00    -0.090 HD
ENDBRANCH   5  18
BRANCH   3  22
ATOM     22  C   LIG d   1     -14.733  67.959 114.230  0.00  0.00     0.382 C 
ATOM     23  O   LIG d   1     -15.020  67.555 113.077  0.00  0.00    -0.241 OA
ATOM     24  O   LIG d   1     -14.326  69.126 114.387  0.00  0.00    -0.241 OA
ENDBRANCH   3  22
TORSDOF 7
ENDMDL
MODEL 7
REMARK VINA RESULT:      -4.8     13.789     16.181
REMARK  7 active torsions:
REMARK  status: ('A' for Active; 'I' for Inactive)
REMARK    1  A    between atoms: C_2  and  C_3 
REMARK    2  A    between atoms: C_3  and  O_6 
REMARK    3  A    between atoms: C_3  and  C_4 
REMARK    4  A    between atoms: C_7  and  O_6 
REMARK    5  A    between atoms: C_9  and  C_10 
REMARK    6  A    between atoms: N_15  and  C_14 
REMARK    7  A    between atoms: N_20  and  C_19 
REMARK       I    between atoms: C_22  and  N_20 
ROOT
ATOM      1  C   LIG d   1     -14.506  64.895 117.240  0.00  0.00     0.161 C 
ATOM      2  C   LIG d   1     -15.576  64.726 116.345  0.00  0.00     0.016 C 
ATOM      3  C   LIG d   1     -16.517  63.676 116.447  0.00  0.00     0.038 C 
ATOM      4  C   LIG d   1     -16.542  62.806 117.547  0.00  0.00     0.028 C 
ATOM      5  C   LIG d   1     -15.179  62.628 118.209  0.00  0.00    -0.047 C 
ATOM      6  C   LIG d   1     -14.582  64.021 118.510  0.00  0.00     0.091 C 
ENDROOT
BRANCH   1   7
ATOM      7  O   LIG d   1     -14.382  66.286 117.596  0.00  0.00    -0.368 OA
BRANCH   7   8
ATOM      8  C   LIG d   1     -15.555  67.107 117.376  0.00  0.00     0.119 C 
BRANCH   8   9
ATOM      9  C   LIG d   1     -15.082  68.430 116.743  0.00  0.00     0.028 C 
ATOM     10  C   LIG d   1     -14.704  68.269 115.261  0.00  0.00     0.006 C 
ENDBRANCH   8   9
BRANCH   8  11
ATOM     11  C   LIG d   1     -16.214  67.504 118.700  0.00  0.00     0.028 C 
ATOM     12  C   LIG d   1     -15.200  67.677 119.842  0.00  0.00     0.006 C 
ENDBRANCH   8  11
ENDBRANCH   7   8
ENDBRANCH   1   7
BRANCH   6  13
ATOM     13  N   LIG d   1     -13.213  63.939 119.082  0.00  0.00    -0.311 N 
ATOM     14  C   LIG d   1     -12.915  64.304 120.328  0.00  0.00     0.210 C 
ATOM     15  C   LIG d   1     -11.439  64.157 120.709  0.00  0.00     0.109 C 
ATOM     16  O   LIG d   1     -13.740  64.704 121.163  0.00  0.00    -0.276 OA
ATOM     17  H   LIG d   1     -12.488  63.596 118.482  0.00  0.00     0.149 HD
ENDBRANCH   6  13
BRANCH   5  18
ATOM     18  N   LIG d   1     -15.376  61.809 119.419  0.00  0.00     0.381 N 
ATOM     19  H   LIG d   1     -15.867  60.969 119.185  0.00  0.00    -0.090 HD
ATOM     20  H   LIG d   1     -15.933  62.327 120.076  0.00  0.00    -0.090 HD
ATOM     21  H   LIG d   1     -14.494  61.584 119.826  0.00  0.00    -0.090 HD
ENDBRANCH   5  18
BRANCH   3  22
ATOM     22  C   LIG d   1     -17.424  63.464 115.419  0.00  0.00     0.382 C 
ATOM     23  O   LIG d   1     -18.371  64.268 115.243  0.00  0.00    -0.241 OA
ATOM     24  O   LIG d   1     -17.333  62.456 114.694  0.00  0.00    -0.241 OA
ENDBRANCH   3  22
TORSDOF 7
ENDMDL
MODEL 8
REMARK VINA RESULT:      -4.8     13.966     16.361
REMARK  7 active torsions:
REMARK  status: ('A' for Active; 'I' for Inactive)
REMARK    1  A    between atoms: C_2  and  C_3 
REMARK    2  A    between atoms: C_3  and  O_6 
REMARK    3  A    between atoms: C_3  and  C_4 
REMARK    4  A    between atoms: C_7  and  O_6 
REMARK    5  A    between atoms: C_9  and  C_10 
REMARK    6  A    between atoms: N_15  and  C_14 
REMARK    7  A    between atoms: N_20  and  C_19 
REMARK       I    between atoms: C_22  and  N_20 
ROOT
ATOM      1  C   LIG d   1     -16.412  64.986 115.153  0.00  0.00     0.161 C 
ATOM      2  C   LIG d   1     -16.615  63.998 116.131  0.00  0.00     0.016 C 
ATOM      3  C   LIG d   1     -15.969  64.004 117.389  0.00  0.00     0.038 C 
ATOM      4  C   LIG d   1     -15.187  65.088 117.816  0.00  0.00     0.028 C 
ATOM      5  C   LIG d   1     -14.551  65.865 116.668  0.00  0.00    -0.047 C 
ATOM      6  C   LIG d   1     -15.648  66.234 115.643  0.00  0.00     0.091 C 
ENDROOT
BRANCH   1   7
ATOM      7  O   LIG d   1     -17.676  65.368 114.575  0.00  0.00    -0.368 OA
BRANCH   7   8
ATOM      8  C   LIG d   1     -18.847  65.148 115.400  0.00  0.00     0.119 C 
BRANCH   8   9
ATOM      9  C   LIG d   1     -19.960  64.597 114.487  0.00  0.00     0.028 C 
ATOM     10  C   LIG d   1     -19.425  63.600 113.445  0.00  0.00     0.006 C 
ENDBRANCH   8   9
BRANCH   8  11
ATOM     11  C   LIG d   1     -19.393  66.466 115.955  0.00  0.00     0.028 C 
ATOM     12  C   LIG d   1     -18.873  66.779 117.367  0.00  0.00     0.006 C 
ENDBRANCH   8  11
ENDBRANCH   7   8
ENDBRANCH   1   7
BRANCH   6  13
ATOM     13  N   LIG d   1     -15.098  66.923 114.447  0.00  0.00    -0.311 N 
ATOM     14  C   LIG d   1     -14.888  68.237 114.390  0.00  0.00     0.210 C 
ATOM     15  C   LIG d   1     -14.334  68.746 113.055  0.00  0.00     0.109 C 
ATOM     16  O   LIG d   1     -15.078  69.026 115.328  0.00  0.00    -0.276 OA
ATOM     17  H   LIG d   1     -14.886  66.355 113.651  0.00  0.00     0.149 HD
ENDBRANCH   6  13
BRANCH   5  18
ATOM     18  N   LIG d   1     -13.879  67.044 117.246  0.00  0.00     0.381 N 
ATOM     19  H   LIG d   1     -13.286  66.760 118.000  0.00  0.00    -0.090 HD
ATOM     20  H   LIG d   1     -14.577  67.669 117.611  0.00  0.00    -0.090 HD
ATOM     21  H   LIG d   1     -13.341  67.507 116.547  0.00  0.00    -0.090 HD
ENDBRANCH   5  18
BRANCH   3  22
ATOM     22  C   LIG d   1     -16.072  62.899 118.219  0.00  0.00     0.382 C 
ATOM     23  O   LIG d   1     -15.072  62.165 118.413  0.00  0.00    -0.241 OA
ATOM     24  O   LIG d   1     -17.162  62.600 118.742  0.00  0.00    -0.241 OA
ENDBRANCH   3  22
TORSDOF 7
ENDMDL
MODEL 9
REMARK VINA RESULT:      -4.8     14.525     17.060
REMARK  7 active torsions:
REMARK  status: ('A' for Active; 'I' for Inactive)
REMARK    1  A    between atoms: C_2  and  C_3 
REMARK    2  A    between atoms: C_3  and  O_6 
REMARK    3  A    between atoms: C_3  and  C_4 
REMARK    4  A    between atoms: C_7  and  O_6 
REMARK    5  A    between atoms: C_9  and  C_10 
REMARK    6  A    between atoms: N_15  and  C_14 
REMARK    7  A    between atoms: N_20  and  C_19 
REMARK       I    between atoms: C_22  and  N_20 
ROOT
ATOM      1  C   LIG d   1     -16.660  64.966 115.714  0.00  0.00     0.161 C 
ATOM      2  C   LIG d   1     -16.269  66.131 115.034  0.00  0.00     0.016 C 
ATOM      3  C   LIG d   1     -15.196  66.952 115.451  0.00  0.00     0.038 C 
ATOM      4  C   LIG d   1     -14.339  66.579 116.497  0.00  0.00     0.028 C 
ATOM      5  C   LIG d   1     -15.002  65.669 117.526  0.00  0.00    -0.047 C 
ATOM      6  C   LIG d   1     -15.668  64.483 116.793  0.00  0.00     0.091 C 
ENDROOT
BRANCH   1   7
ATOM      7  O   LIG d   1     -16.923  63.912 114.767  0.00  0.00    -0.368 OA
BRANCH   7   8
ATOM      8  C   LIG d   1     -18.246  63.900 114.178  0.00  0.00     0.119 C 
BRANCH   8   9
ATOM      9  C   LIG d   1     -19.260  63.705 115.322  0.00  0.00     0.028 C 
ATOM     10  C   LIG d   1     -20.415  64.719 115.261  0.00  0.00     0.006 C 
ENDBRANCH   8   9
BRANCH   8  11
ATOM     11  C   LIG d   1     -18.435  62.689 113.258  0.00  0.00     0.028 C 
ATOM     12  C   LIG d   1     -17.872  61.391 113.858  0.00  0.00     0.006 C 
ENDBRANCH   8  11
ENDBRANCH   7   8
ENDBRANCH   1   7
BRANCH   6  13
ATOM     13  N   LIG d   1     -16.411  63.589 117.719  0.00  0.00    -0.311 N 
ATOM     14  C   LIG d   1     -15.866  62.526 118.307  0.00  0.00     0.210 C 
ATOM     15  C   LIG d   1     -16.813  61.728 119.209  0.00  0.00     0.109 C 
ATOM     16  O   LIG d   1     -14.678  62.186 118.192  0.00  0.00    -0.276 OA
ATOM     17  H   LIG d   1     -17.372  63.810 117.893  0.00  0.00     0.149 HD
ENDBRANCH   6  13
BRANCH   5  18
ATOM     18  N   LIG d   1     -13.961  65.246 118.483  0.00  0.00     0.381 N 
ATOM     19  H   LIG d   1     -13.290  65.979 118.599  0.00  0.00    -0.090 HD
ATOM     20  H   LIG d   1     -13.488  64.441 118.113  0.00  0.00    -0.090 HD
ATOM     21  H   LIG d   1     -14.375  65.023 119.361  0.00  0.00    -0.090 HD
ENDBRANCH   5  18
BRANCH   3  22
ATOM     22  C   LIG d   1     -14.995  68.182 114.843  0.00  0.00     0.382 C 
ATOM     23  O   LIG d   1     -14.909  69.221 115.542  0.00  0.00    -0.241 OA
ATOM     24  O   LIG d   1     -14.943  68.272 113.601  0.00  0.00    -0.241 OA
ENDBRANCH   3  22
TORSDOF 7
ENDMDL
