MODEL 1
REMARK VINA RESULT:      -5.6      0.000      0.000
REMARK  7 active torsions:
REMARK  status: ('A' for Active; 'I' for Inactive)
REMARK    1  A    between atoms: C_2  and  C_3 
REMARK    2  A    between atoms: C_3  and  O_6 
REMARK    3  A    between atoms: C_3  and  C_4 
REMARK    4  A    between atoms: C_7  and  O_6 
REMARK    5  A    between atoms: C_9  and  C_10 
REMARK    6  A    between atoms: N_15  and  C_14 
REMARK    7  A    between atoms: N_20  and  C_19 
REMARK       I    between atoms: C_22  and  N_20 
ROOT
ATOM      1  C   LIG d   1      -7.304  74.908 117.866  0.00  0.00     0.161 C 
ATOM      2  C   LIG d   1      -7.442  73.600 117.370  0.00  0.00     0.016 C 
ATOM      3  C   LIG d   1      -8.687  72.940 117.254  0.00  0.00     0.038 C 
ATOM      4  C   LIG d   1      -9.902  73.601 117.486  0.00  0.00     0.028 C 
ATOM      5  C   LIG d   1      -9.782  74.760 118.470  0.00  0.00    -0.047 C 
ATOM      6  C   LIG d   1      -8.629  75.684 118.019  0.00  0.00     0.091 C 
ENDROOT
BRANCH   1   7
ATOM      7  O   LIG d   1      -6.382  75.648 117.042  0.00  0.00    -0.368 OA
BRANCH   7   8
ATOM      8  C   LIG d   1      -5.730  74.901 115.985  0.00  0.00     0.119 C 
BRANCH   8   9
ATOM      9  C   LIG d   1      -4.209  75.052 116.181  0.00  0.00     0.028 C 
ATOM     10  C   LIG d   1      -3.748  74.582 117.571  0.00  0.00     0.006 C 
ENDBRANCH   8   9
BRANCH   8  11
ATOM     11  C   LIG d   1      -6.024  75.509 114.610  0.00  0.00     0.028 C 
ATOM     12  C   LIG d   1      -4.935  75.191 113.573  0.00  0.00     0.006 C 
ENDBRANCH   8  11
ENDBRANCH   7   8
ENDBRANCH   1   7
BRANCH   6  13
ATOM     13  N   LIG d   1      -8.389  76.798 118.973  0.00  0.00    -0.311 N 
ATOM     14  C   LIG d   1      -9.021  77.969 118.908  0.00  0.00     0.210 C 
ATOM     15  C   LIG d   1      -8.611  78.986 119.977  0.00  0.00     0.109 C 
ATOM     16  O   LIG d   1      -9.906  78.249 118.086  0.00  0.00    -0.276 OA
ATOM     17  H   LIG d   1      -7.709  76.645 119.692  0.00  0.00     0.149 HD
ENDBRANCH   6  13
BRANCH   5  18
ATOM     18  N   LIG d   1     -11.089  75.444 118.513  0.00  0.00     0.381 N 
ATOM     19  H   LIG d   1     -10.981  76.354 118.915  0.00  0.00    -0.090 HD
ATOM     20  H   LIG d   1     -11.714  74.915 119.095  0.00  0.00    -0.090 HD
ATOM     21  H   LIG d   1     -11.464  75.522 117.593  0.00  0.00    -0.090 HD
ENDBRANCH   5  18
BRANCH   3  22
ATOM     22  C   LIG d   1      -8.721  71.589 116.940  0.00  0.00     0.382 C 
ATOM     23  O   LIG d   1      -8.023  71.147 115.996  0.00  0.00    -0.241 OA
ATOM     24  O   LIG d   1      -9.475  70.816 117.560  0.00  0.00    -0.241 OA
ENDBRANCH   3  22
TORSDOF 7
ENDMDL
MODEL 2
REMARK VINA RESULT:      -5.3      2.247      4.908
REMARK  7 active torsions:
REMARK  status: ('A' for Active; 'I' for Inactive)
REMARK    1  A    between atoms: C_2  and  C_3 
REMARK    2  A    between atoms: C_3  and  O_6 
REMARK    3  A    between atoms: C_3  and  C_4 
REMARK    4  A    between atoms: C_7  and  O_6 
REMARK    5  A    between atoms: C_9  and  C_10 
REMARK    6  A    between atoms: N_15  and  C_14 
REMARK    7  A    between atoms: N_20  and  C_19 
REMARK       I    between atoms: C_22  and  N_20 
ROOT
ATOM      1  C   LIG d   1      -6.807  75.295 116.667  0.00  0.00     0.161 C 
ATOM      2  C   LIG d   1      -5.930  74.811 115.682  0.00  0.00     0.016 C 
ATOM      3  C   LIG d   1      -4.803  75.531 115.222  0.00  0.00     0.038 C 
ATOM      4  C   LIG d   1      -4.389  76.726 115.828  0.00  0.00     0.028 C 
ATOM      5  C   LIG d   1      -5.529  77.500 116.483  0.00  0.00    -0.047 C 
ATOM      6  C   LIG d   1      -6.309  76.547 117.418  0.00  0.00     0.091 C 
ENDROOT
BRANCH   1   7
ATOM      7  O   LIG d   1      -7.122  74.243 117.600  0.00  0.00    -0.368 OA
BRANCH   7   8
ATOM      8  C   LIG d   1      -8.420  73.618 117.442  0.00  0.00     0.119 C 
BRANCH   8   9
ATOM      9  C   LIG d   1      -9.344  74.187 118.536  0.00  0.00     0.028 C 
ATOM     10  C   LIG d   1     -10.541  74.956 117.951  0.00  0.00     0.006 C 
ENDBRANCH   8   9
BRANCH   8  11
ATOM     11  C   LIG d   1      -8.349  72.112 117.714  0.00  0.00     0.028 C 
ATOM     12  C   LIG d   1      -8.050  71.292 116.449  0.00  0.00     0.006 C 
ENDBRANCH   8  11
ENDBRANCH   7   8
ENDBRANCH   1   7
BRANCH   6  13
ATOM     13  N   LIG d   1      -7.492  77.202 118.034  0.00  0.00    -0.311 N 
ATOM     14  C   LIG d   1      -7.666  77.314 119.350  0.00  0.00     0.210 C 
ATOM     15  C   LIG d   1      -8.964  78.006 119.775  0.00  0.00     0.109 C 
ATOM     16  O   LIG d   1      -6.852  76.933 120.205  0.00  0.00    -0.276 OA
ATOM     17  H   LIG d   1      -8.187  77.567 117.413  0.00  0.00     0.149 HD
ENDBRANCH   6  13
BRANCH   5  18
ATOM     18  N   LIG d   1      -4.937  78.650 117.192  0.00  0.00     0.381 N 
ATOM     19  H   LIG d   1      -4.407  79.206 116.552  0.00  0.00    -0.090 HD
ATOM     20  H   LIG d   1      -4.314  78.308 117.903  0.00  0.00    -0.090 HD
ATOM     21  H   LIG d   1      -5.656  79.201 117.607  0.00  0.00    -0.090 HD
ENDBRANCH   5  18
BRANCH   3  22
ATOM     22  C   LIG d   1      -4.101  75.074 114.117  0.00  0.00     0.382 C 
ATOM     23  O   LIG d   1      -2.846  75.100 114.118  0.00  0.00    -0.241 OA
ATOM     24  O   LIG d   1      -4.706  74.679 113.103  0.00  0.00    -0.241 OA
ENDBRANCH   3  22
TORSDOF 7
ENDMDL
MODEL 3
REMARK VINA RESULT:      -5.2      1.481      2.110
REMARK  7 active torsions:
REMARK  status: ('A' for Active; 'I' for Inactive)
REMARK    1  A    between atoms: C_2  and  C_3 
REMARK    2  A    between atoms: C_3  and  O_6 
REMARK    3  A    between atoms: C_3  and  C_4 
REMARK    4  A    between atoms: C_7  and  O_6 
REMARK    5  A    between atoms: C_9  and  C_10 
REMARK    6  A    between atoms: N_15  and  C_14 
REMARK    7  A    between atoms: N_20  and  C_19 
REMARK       I    between atoms: C_22  and  N_20 
ROOT
ATOM      1  C   LIG d   1      -6.402  74.723 117.142  0.00  0.00     0.161 C 
ATOM      2  C   LIG d   1      -6.903  73.473 116.743  0.00  0.00     0.016 C 
ATOM      3  C   LIG d   1      -8.085  72.904 117.271  0.00  0.00     0.038 C 
ATOM      4  C   LIG d   1      -8.933  73.619 118.129  0.00  0.00     0.028 C 
ATOM      5  C   LIG d   1      -8.209  74.682 118.948  0.00  0.00    -0.047 C 
ATOM      6  C   LIG d   1      -7.372  75.566 117.996  0.00  0.00     0.091 C 
ENDROOT
BRANCH   1   7
ATOM      7  O   LIG d   1      -5.973  75.469 115.986  0.00  0.00    -0.368 OA
BRANCH   7   8
ATOM      8  C   LIG d   1      -4.592  75.908 115.987  0.00  0.00     0.119 C 
BRANCH   8   9
ATOM      9  C   LIG d   1      -4.052  75.741 114.553  0.00  0.00     0.028 C 
ATOM     10  C   LIG d   1      -5.131  75.249 113.574  0.00  0.00     0.006 C 
ENDBRANCH   8   9
BRANCH   8  11
ATOM     11  C   LIG d   1      -3.719  74.999 116.857  0.00  0.00     0.028 C 
ATOM     12  C   LIG d   1      -2.296  74.832 116.302  0.00  0.00     0.006 C 
ENDBRANCH   8  11
ENDBRANCH   7   8
ENDBRANCH   1   7
BRANCH   6  13
ATOM     13  N   LIG d   1      -6.565  76.579 118.724  0.00  0.00    -0.311 N 
ATOM     14  C   LIG d   1      -6.596  77.881 118.444  0.00  0.00     0.210 C 
ATOM     15  C   LIG d   1      -5.671  78.750 119.303  0.00  0.00     0.109 C 
ATOM     16  O   LIG d   1      -7.324  78.403 117.586  0.00  0.00    -0.276 OA
ATOM     17  H   LIG d   1      -5.969  76.247 119.457  0.00  0.00     0.149 HD
ENDBRANCH   6  13
BRANCH   5  18
ATOM     18  N   LIG d   1      -9.229  75.442 119.695  0.00  0.00     0.381 N 
ATOM     19  H   LIG d   1      -8.940  75.554 120.646  0.00  0.00    -0.090 HD
ATOM     20  H   LIG d   1     -10.091  74.925 119.686  0.00  0.00    -0.090 HD
ATOM     21  H   LIG d   1      -9.365  76.335 119.274  0.00  0.00    -0.090 HD
ENDBRANCH   5  18
BRANCH   3  22
ATOM     22  C   LIG d   1      -8.409  71.589 116.970  0.00  0.00     0.382 C 
ATOM     23  O   LIG d   1      -7.883  71.025 115.981  0.00  0.00    -0.241 OA
ATOM     24  O   LIG d   1      -9.253  70.976 117.650  0.00  0.00    -0.241 OA
ENDBRANCH   3  22
TORSDOF 7
ENDMDL
MODEL 4
REMARK VINA RESULT:      -5.1      2.555      5.119
REMARK  7 active torsions:
REMARK  status: ('A' for Active; 'I' for Inactive)
REMARK    1  A    between atoms: C_2  and  C_3 
REMARK    2  A    between atoms: C_3  and  O_6 
REMARK    3  A    between atoms: C_3  and  C_4 
REMARK    4  A    between atoms: C_7  and  O_6 
REMARK    5  A    between atoms: C_9  and  C_10 
REMARK    6  A    between atoms: N_15  and  C_14 
REMARK    7  A    between atoms: N_20  and  C_19 
REMARK       I    between atoms: C_22  and  N_20 
ROOT
ATOM      1  C   LIG d   1      -6.414  76.710 117.094  0.00  0.00     0.161 C 
ATOM      2  C   LIG d   1      -5.663  76.778 115.908  0.00  0.00     0.016 C 
ATOM      3  C   LIG d   1      -5.394  75.655 115.092  0.00  0.00     0.038 C 
ATOM      4  C   LIG d   1      -5.989  74.407 115.329  0.00  0.00     0.028 C 
ATOM      5  C   LIG d   1      -6.346  74.174 116.793  0.00  0.00    -0.047 C 
ATOM      6  C   LIG d   1      -7.164  75.379 117.308  0.00  0.00     0.091 C 
ENDROOT
BRANCH   1   7
ATOM      7  O   LIG d   1      -7.333  77.819 117.154  0.00  0.00    -0.368 OA
BRANCH   7   8
ATOM      8  C   LIG d   1      -7.172  78.719 118.277  0.00  0.00     0.119 C 
BRANCH   8   9
ATOM      9  C   LIG d   1      -8.552  79.340 118.574  0.00  0.00     0.028 C 
ATOM     10  C   LIG d   1      -9.681  78.296 118.556  0.00  0.00     0.006 C 
ENDBRANCH   8   9
BRANCH   8  11
ATOM     11  C   LIG d   1      -6.265  79.900 117.920  0.00  0.00     0.028 C 
ATOM     12  C   LIG d   1      -7.016  81.241 117.892  0.00  0.00     0.006 C 
ENDBRANCH   8  11
ENDBRANCH   7   8
ENDBRANCH   1   7
BRANCH   6  13
ATOM     13  N   LIG d   1      -7.483  75.271 118.756  0.00  0.00    -0.311 N 
ATOM     14  C   LIG d   1      -8.633  74.784 119.219  0.00  0.00     0.210 C 
ATOM     15  C   LIG d   1      -8.765  74.780 120.745  0.00  0.00     0.109 C 
ATOM     16  O   LIG d   1      -9.542  74.325 118.512  0.00  0.00    -0.276 OA
ATOM     17  H   LIG d   1      -6.787  75.591 119.401  0.00  0.00     0.149 HD
ENDBRANCH   6  13
BRANCH   5  18
ATOM     18  N   LIG d   1      -7.082  72.898 116.874  0.00  0.00     0.381 N 
ATOM     19  H   LIG d   1      -7.631  72.876 117.710  0.00  0.00    -0.090 HD
ATOM     20  H   LIG d   1      -6.420  72.143 116.912  0.00  0.00    -0.090 HD
ATOM     21  H   LIG d   1      -7.672  72.793 116.078  0.00  0.00    -0.090 HD
ENDBRANCH   5  18
BRANCH   3  22
ATOM     22  C   LIG d   1      -4.488  75.766 114.048  0.00  0.00     0.382 C 
ATOM     23  O   LIG d   1      -4.181  74.753 113.375  0.00  0.00    -0.241 OA
ATOM     24  O   LIG d   1      -3.940  76.856 113.800  0.00  0.00    -0.241 OA
ENDBRANCH   3  22
TORSDOF 7
ENDMDL
MODEL 5
REMARK VINA RESULT:      -5.1      2.337      4.382
REMARK  7 active torsions:
REMARK  status: ('A' for Active; 'I' for Inactive)
REMARK    1  A    between atoms: C_2  and  C_3 
REMARK    2  A    between atoms: C_3  and  O_6 
REMARK    3  A    between atoms: C_3  and  C_4 
REMARK    4  A    between atoms: C_7  and  O_6 
REMARK    5  A    between atoms: C_9  and  C_10 
REMARK    6  A    between atoms: N_15  and  C_14 
REMARK    7  A    between atoms: N_20  and  C_19 
REMARK       I    between atoms: C_22  and  N_20 
ROOT
ATOM      1  C   LIG d   1      -8.217  75.996 118.272  0.00  0.00     0.161 C 
ATOM      2  C   LIG d   1      -9.600  75.821 118.447  0.00  0.00     0.016 C 
ATOM      3  C   LIG d   1     -10.485  76.880 118.754  0.00  0.00     0.038 C 
ATOM      4  C   LIG d   1     -10.067  78.219 118.759  0.00  0.00     0.028 C 
ATOM      5  C   LIG d   1      -8.587  78.390 119.087  0.00  0.00    -0.047 C 
ATOM      6  C   LIG d   1      -7.759  77.466 118.164  0.00  0.00     0.091 C 
ENDROOT
BRANCH   1   7
ATOM      7  O   LIG d   1      -7.771  75.247 117.125  0.00  0.00    -0.368 OA
BRANCH   7   8
ATOM      8  C   LIG d   1      -6.888  74.130 117.397  0.00  0.00     0.119 C 
BRANCH   8   9
ATOM      9  C   LIG d   1      -5.581  74.373 116.618  0.00  0.00     0.028 C 
ATOM     10  C   LIG d   1      -5.830  74.985 115.229  0.00  0.00     0.006 C 
ENDBRANCH   8   9
BRANCH   8  11
ATOM     11  C   LIG d   1      -7.456  72.822 116.838  0.00  0.00     0.028 C 
ATOM     12  C   LIG d   1      -8.510  72.188 117.759  0.00  0.00     0.006 C 
ENDBRANCH   8  11
ENDBRANCH   7   8
ENDBRANCH   1   7
BRANCH   6  13
ATOM     13  N   LIG d   1      -6.307  77.509 118.475  0.00  0.00    -0.311 N 
ATOM     14  C   LIG d   1      -5.380  77.888 117.597  0.00  0.00     0.210 C 
ATOM     15  C   LIG d   1      -3.939  77.840 118.116  0.00  0.00     0.109 C 
ATOM     16  O   LIG d   1      -5.617  78.291 116.449  0.00  0.00    -0.276 OA
ATOM     17  H   LIG d   1      -6.029  77.228 119.395  0.00  0.00     0.149 HD
ENDBRANCH   6  13
BRANCH   5  18
ATOM     18  N   LIG d   1      -8.257  79.818 118.922  0.00  0.00     0.381 N 
ATOM     19  H   LIG d   1      -8.290  80.278 119.810  0.00  0.00    -0.090 HD
ATOM     20  H   LIG d   1      -8.940  80.243 118.321  0.00  0.00    -0.090 HD
ATOM     21  H   LIG d   1      -7.348  79.914 118.524  0.00  0.00    -0.090 HD
ENDBRANCH   5  18
BRANCH   3  22
ATOM     22  C   LIG d   1     -11.798  76.599 119.101  0.00  0.00     0.382 C 
ATOM     23  O   LIG d   1     -12.580  76.109 118.250  0.00  0.00    -0.241 OA
ATOM     24  O   LIG d   1     -12.223  76.870 120.240  0.00  0.00    -0.241 OA
ENDBRANCH   3  22
TORSDOF 7
ENDMDL
MODEL 6
REMARK VINA RESULT:      -5.0      3.889      6.977
REMARK  7 active torsions:
REMARK  status: ('A' for Active; 'I' for Inactive)
REMARK    1  A    between atoms: C_2  and  C_3 
REMARK    2  A    between atoms: C_3  and  O_6 
REMARK    3  A    between atoms: C_3  and  C_4 
REMARK    4  A    between atoms: C_7  and  O_6 
REMARK    5  A    between atoms: C_9  and  C_10 
REMARK    6  A    between atoms: N_15  and  C_14 
REMARK    7  A    between atoms: N_20  and  C_19 
REMARK       I    between atoms: C_22  and  N_20 
ROOT
ATOM      1  C   LIG d   1      -3.777  76.059 114.662  0.00  0.00     0.161 C 
ATOM      2  C   LIG d   1      -2.980  77.115 114.187  0.00  0.00     0.016 C 
ATOM      3  C   LIG d   1      -2.931  78.388 114.799  0.00  0.00     0.038 C 
ATOM      4  C   LIG d   1      -3.564  78.647 116.023  0.00  0.00     0.028 C 
ATOM      5  C   LIG d   1      -4.784  77.767 116.273  0.00  0.00    -0.047 C 
ATOM      6  C   LIG d   1      -4.388  76.288 116.060  0.00  0.00     0.091 C 
ENDROOT
BRANCH   1   7
ATOM      7  O   LIG d   1      -3.023  74.831 114.640  0.00  0.00    -0.368 OA
BRANCH   7   8
ATOM      8  C   LIG d   1      -1.599  74.952 114.879  0.00  0.00     0.119 C 
BRANCH   8   9
ATOM      9  C   LIG d   1      -0.895  73.866 114.041  0.00  0.00     0.028 C 
ATOM     10  C   LIG d   1       0.531  74.272 113.634  0.00  0.00     0.006 C 
ENDBRANCH   8   9
BRANCH   8  11
ATOM     11  C   LIG d   1      -1.249  74.631 116.335  0.00  0.00     0.028 C 
ATOM     12  C   LIG d   1      -0.824  75.874 117.133  0.00  0.00     0.006 C 
ENDBRANCH   8  11
ENDBRANCH   7   8
ENDBRANCH   1   7
BRANCH   6  13
ATOM     13  N   LIG d   1      -5.544  75.366 116.202  0.00  0.00    -0.311 N 
ATOM     14  C   LIG d   1      -5.481  74.206 116.854  0.00  0.00     0.210 C 
ATOM     15  C   LIG d   1      -6.783  73.398 116.864  0.00  0.00     0.109 C 
ATOM     16  O   LIG d   1      -4.480  73.786 117.454  0.00  0.00    -0.276 OA
ATOM     17  H   LIG d   1      -6.405  75.644 115.773  0.00  0.00     0.149 HD
ENDBRANCH   6  13
BRANCH   5  18
ATOM     18  N   LIG d   1      -5.263  78.046 117.640  0.00  0.00     0.381 N 
ATOM     19  H   LIG d   1      -5.627  77.209 118.049  0.00  0.00    -0.090 HD
ATOM     20  H   LIG d   1      -6.004  78.723 117.593  0.00  0.00    -0.090 HD
ATOM     21  H   LIG d   1      -4.516  78.399 118.197  0.00  0.00    -0.090 HD
ENDBRANCH   5  18
BRANCH   3  22
ATOM     22  C   LIG d   1      -2.275  79.431 114.163  0.00  0.00     0.382 C 
ATOM     23  O   LIG d   1      -1.021  79.454 114.128  0.00  0.00    -0.241 OA
ATOM     24  O   LIG d   1      -2.920  80.372 113.662  0.00  0.00    -0.241 OA
ENDBRANCH   3  22
TORSDOF 7
ENDMDL
MODEL 7
REMARK VINA RESULT:      -5.0      2.352      4.881
REMARK  7 active torsions:
REMARK  status: ('A' for Active; 'I' for Inactive)
REMARK    1  A    between atoms: C_2  and  C_3 
REMARK    2  A    between atoms: C_3  and  O_6 
REMARK    3  A    between atoms: C_3  and  C_4 
REMARK    4  A    between atoms: C_7  and  O_6 
REMARK    5  A    between atoms: C_9  and  C_10 
REMARK    6  A    between atoms: N_15  and  C_14 
REMARK    7  A    between atoms: N_20  and  C_19 
REMARK       I    between atoms: C_22  and  N_20 
ROOT
ATOM      1  C   LIG d   1      -7.197  75.646 117.196  0.00  0.00     0.161 C 
ATOM      2  C   LIG d   1      -6.677  75.282 115.943  0.00  0.00     0.016 C 
ATOM      3  C   LIG d   1      -5.631  75.984 115.301  0.00  0.00     0.038 C 
ATOM      4  C   LIG d   1      -4.927  77.015 115.942  0.00  0.00     0.028 C 
ATOM      5  C   LIG d   1      -5.749  77.742 117.000  0.00  0.00    -0.047 C 
ATOM      6  C   LIG d   1      -6.367  76.700 117.960  0.00  0.00     0.091 C 
ENDROOT
BRANCH   1   7
ATOM      7  O   LIG d   1      -7.383  74.470 118.009  0.00  0.00    -0.368 OA
BRANCH   7   8
ATOM      8  C   LIG d   1      -8.753  74.131 118.334  0.00  0.00     0.119 C 
BRANCH   8   9
ATOM      9  C   LIG d   1      -9.133  72.890 117.503  0.00  0.00     0.028 C 
ATOM     10  C   LIG d   1      -8.373  71.629 117.949  0.00  0.00     0.006 C 
ENDBRANCH   8   9
BRANCH   8  11
ATOM     11  C   LIG d   1      -9.721  75.230 117.887  0.00  0.00     0.028 C 
ATOM     12  C   LIG d   1     -11.105  74.684 117.500  0.00  0.00     0.006 C 
ENDBRANCH   8  11
ENDBRANCH   7   8
ENDBRANCH   1   7
BRANCH   6  13
ATOM     13  N   LIG d   1      -7.256  77.322 118.976  0.00  0.00    -0.311 N 
ATOM     14  C   LIG d   1      -7.145  77.095 120.284  0.00  0.00     0.210 C 
ATOM     15  C   LIG d   1      -8.175  77.821 121.155  0.00  0.00     0.109 C 
ATOM     16  O   LIG d   1      -6.272  76.387 120.807  0.00  0.00    -0.276 OA
ATOM     17  H   LIG d   1      -7.973  77.935 118.641  0.00  0.00     0.149 HD
ENDBRANCH   6  13
BRANCH   5  18
ATOM     18  N   LIG d   1      -4.853  78.696 117.682  0.00  0.00     0.381 N 
ATOM     19  H   LIG d   1      -5.150  78.821 118.630  0.00  0.00    -0.090 HD
ATOM     20  H   LIG d   1      -4.907  79.584 117.215  0.00  0.00    -0.090 HD
ATOM     21  H   LIG d   1      -3.916  78.358 117.662  0.00  0.00    -0.090 HD
ENDBRANCH   5  18
BRANCH   3  22
ATOM     22  C   LIG d   1      -5.305  75.682 113.988  0.00  0.00     0.382 C 
ATOM     23  O   LIG d   1      -6.062  76.045 113.055  0.00  0.00    -0.241 OA
ATOM     24  O   LIG d   1      -4.288  75.013 113.726  0.00  0.00    -0.241 OA
ENDBRANCH   3  22
TORSDOF 7
ENDMDL
MODEL 8
REMARK VINA RESULT:      -5.0      2.534      5.452
REMARK  7 active torsions:
REMARK  status: ('A' for Active; 'I' for Inactive)
REMARK    1  A    between atoms: C_2  and  C_3 
REMARK    2  A    between atoms: C_3  and  O_6 
REMARK    3  A    between atoms: C_3  and  C_4 
REMARK    4  A    between atoms: C_7  and  O_6 
REMARK    5  A    between atoms: C_9  and  C_10 
REMARK    6  A    between atoms: N_15  and  C_14 
REMARK    7  A    between atoms: N_20  and  C_19 
REMARK       I    between atoms: C_22  and  N_20 
ROOT
ATOM      1  C   LIG d   1      -7.844  75.461 119.277  0.00  0.00     0.161 C 
ATOM      2  C   LIG d   1      -9.063  76.146 119.409  0.00  0.00     0.016 C 
ATOM      3  C   LIG d   1      -9.300  77.426 118.858  0.00  0.00     0.038 C 
ATOM      4  C   LIG d   1      -8.377  78.048 118.003  0.00  0.00     0.028 C 
ATOM      5  C   LIG d   1      -6.935  77.618 118.253  0.00  0.00    -0.047 C 
ATOM      6  C   LIG d   1      -6.865  76.074 118.254  0.00  0.00     0.091 C 
ENDROOT
BRANCH   1   7
ATOM      7  O   LIG d   1      -8.094  74.076 118.963  0.00  0.00    -0.368 OA
BRANCH   7   8
ATOM      8  C   LIG d   1      -8.468  73.790 117.593  0.00  0.00     0.119 C 
BRANCH   8   9
ATOM      9  C   LIG d   1      -9.873  73.159 117.619  0.00  0.00     0.028 C 
ATOM     10  C   LIG d   1     -10.984  74.189 117.357  0.00  0.00     0.006 C 
ENDBRANCH   8   9
BRANCH   8  11
ATOM     11  C   LIG d   1      -7.556  72.725 116.977  0.00  0.00     0.028 C 
ATOM     12  C   LIG d   1      -8.322  71.467 116.537  0.00  0.00     0.006 C 
ENDBRANCH   8  11
ENDBRANCH   7   8
ENDBRANCH   1   7
BRANCH   6  13
ATOM     13  N   LIG d   1      -5.505  75.569 118.575  0.00  0.00    -0.311 N 
ATOM     14  C   LIG d   1      -4.684  75.045 117.667  0.00  0.00     0.210 C 
ATOM     15  C   LIG d   1      -3.335  74.567 118.213  0.00  0.00     0.109 C 
ATOM     16  O   LIG d   1      -4.932  74.960 116.455  0.00  0.00    -0.276 OA
ATOM     17  H   LIG d   1      -5.210  75.628 119.530  0.00  0.00     0.149 HD
ENDBRANCH   6  13
BRANCH   5  18
ATOM     18  N   LIG d   1      -6.099  78.234 117.206  0.00  0.00     0.381 N 
ATOM     19  H   LIG d   1      -6.576  78.200 116.327  0.00  0.00    -0.090 HD
ATOM     20  H   LIG d   1      -5.245  77.711 117.122  0.00  0.00    -0.090 HD
ATOM     21  H   LIG d   1      -5.895  79.180 117.444  0.00  0.00    -0.090 HD
ENDBRANCH   5  18
BRANCH   3  22
ATOM     22  C   LIG d   1     -10.455  78.116 119.194  0.00  0.00     0.382 C 
ATOM     23  O   LIG d   1     -11.565  77.534 119.160  0.00  0.00    -0.241 OA
ATOM     24  O   LIG d   1     -10.405  79.326 119.486  0.00  0.00    -0.241 OA
ENDBRANCH   3  22
TORSDOF 7
ENDMDL
MODEL 9
REMARK VINA RESULT:      -4.9      2.558      3.471
REMARK  7 active torsions:
REMARK  status: ('A' for Active; 'I' for Inactive)
REMARK    1  A    between atoms: C_2  and  C_3 
REMARK    2  A    between atoms: C_3  and  O_6 
REMARK    3  A    between atoms: C_3  and  C_4 
REMARK    4  A    between atoms: C_7  and  O_6 
REMARK    5  A    between atoms: C_9  and  C_10 
REMARK    6  A    between atoms: N_15  and  C_14 
REMARK    7  A    between atoms: N_20  and  C_19 
REMARK       I    between atoms: C_22  and  N_20 
ROOT
ATOM      1  C   LIG d   1      -7.586  76.324 117.404  0.00  0.00     0.161 C 
ATOM      2  C   LIG d   1      -8.871  75.757 117.395  0.00  0.00     0.016 C 
ATOM      3  C   LIG d   1     -10.002  76.385 117.965  0.00  0.00     0.038 C 
ATOM      4  C   LIG d   1      -9.954  77.699 118.453  0.00  0.00     0.028 C 
ATOM      5  C   LIG d   1      -8.569  78.114 118.939  0.00  0.00    -0.047 C 
ATOM      6  C   LIG d   1      -7.535  77.806 117.832  0.00  0.00     0.091 C 
ENDROOT
BRANCH   1   7
ATOM      7  O   LIG d   1      -6.968  76.155 116.112  0.00  0.00    -0.368 OA
BRANCH   7   8
ATOM      8  C   LIG d   1      -6.130  74.984 115.955  0.00  0.00     0.119 C 
BRANCH   8   9
ATOM      9  C   LIG d   1      -5.422  74.737 117.301  0.00  0.00     0.028 C 
ATOM     10  C   LIG d   1      -3.981  75.274 117.313  0.00  0.00     0.006 C 
ENDBRANCH   8   9
BRANCH   8  11
ATOM     11  C   LIG d   1      -5.006  75.234 114.945  0.00  0.00     0.028 C 
ATOM     12  C   LIG d   1      -5.531  75.550 113.535  0.00  0.00     0.006 C 
ENDBRANCH   8  11
ENDBRANCH   7   8
ENDBRANCH   1   7
BRANCH   6  13
ATOM     13  N   LIG d   1      -6.143  78.104 118.258  0.00  0.00    -0.311 N 
ATOM     14  C   LIG d   1      -5.511  79.236 117.957  0.00  0.00     0.210 C 
ATOM     15  C   LIG d   1      -4.073  79.332 118.477  0.00  0.00     0.109 C 
ATOM     16  O   LIG d   1      -6.015  80.184 117.335  0.00  0.00    -0.276 OA
ATOM     17  H   LIG d   1      -5.670  77.402 118.794  0.00  0.00     0.149 HD
ENDBRANCH   6  13
BRANCH   5  18
ATOM     18  N   LIG d   1      -8.631  79.545 119.291  0.00  0.00     0.381 N 
ATOM     19  H   LIG d   1      -7.964  79.747 120.009  0.00  0.00    -0.090 HD
ATOM     20  H   LIG d   1      -9.548  79.754 119.645  0.00  0.00    -0.090 HD
ATOM     21  H   LIG d   1      -8.443  80.102 118.486  0.00  0.00    -0.090 HD
ENDBRANCH   5  18
BRANCH   3  22
ATOM     22  C   LIG d   1     -11.190  75.680 118.088  0.00  0.00     0.382 C 
ATOM     23  O   LIG d   1     -11.226  74.457 117.807  0.00  0.00    -0.241 OA
ATOM     24  O   LIG d   1     -12.237  76.261 118.432  0.00  0.00    -0.241 OA
ENDBRANCH   3  22
TORSDOF 7
ENDMDL
