MODEL 1
REMARK VINA RESULT:      -5.9      0.000      0.000
REMARK  7 active torsions:
REMARK  status: ('A' for Active; 'I' for Inactive)
REMARK    1  A    between atoms: C_2  and  C_3 
REMARK    2  A    between atoms: C_3  and  O_6 
REMARK    3  A    between atoms: C_3  and  C_4 
REMARK    4  A    between atoms: C_7  and  O_6 
REMARK    5  A    between atoms: C_9  and  C_10 
REMARK    6  A    between atoms: N_15  and  C_14 
REMARK    7  A    between atoms: N_20  and  C_19 
REMARK       I    between atoms: C_22  and  N_20 
ROOT
ATOM      1  C   LIG d   1      -7.654  74.944 118.607  0.00  0.00     0.161 C 
ATOM      2  C   LIG d   1      -7.519  73.718 117.935  0.00  0.00     0.016 C 
ATOM      3  C   LIG d   1      -8.531  73.161 117.121  0.00  0.00     0.038 C 
ATOM      4  C   LIG d   1      -9.699  73.869 116.801  0.00  0.00     0.028 C 
ATOM      5  C   LIG d   1     -10.097  74.891 117.860  0.00  0.00    -0.047 C 
ATOM      6  C   LIG d   1      -8.876  75.784 118.181  0.00  0.00     0.091 C 
ENDROOT
BRANCH   1   7
ATOM      7  O   LIG d   1      -6.444  75.714 118.467  0.00  0.00    -0.368 OA
BRANCH   7   8
ATOM      8  C   LIG d   1      -5.538  75.293 117.418  0.00  0.00     0.119 C 
BRANCH   8   9
ATOM      9  C   LIG d   1      -4.111  75.318 118.001  0.00  0.00     0.028 C 
ATOM     10  C   LIG d   1      -3.272  74.111 117.549  0.00  0.00     0.006 C 
ENDBRANCH   8   9
BRANCH   8  11
ATOM     11  C   LIG d   1      -5.520  76.295 116.261  0.00  0.00     0.028 C 
ATOM     12  C   LIG d   1      -6.487  75.915 115.128  0.00  0.00     0.006 C 
ENDBRANCH   8  11
ENDBRANCH   7   8
ENDBRANCH   1   7
BRANCH   6  13
ATOM     13  N   LIG d   1      -9.155  76.757 119.269  0.00  0.00    -0.311 N 
ATOM     14  C   LIG d   1      -9.663  77.970 119.055  0.00  0.00     0.210 C 
ATOM     15  C   LIG d   1      -9.854  78.821 120.314  0.00  0.00     0.109 C 
ATOM     16  O   LIG d   1     -10.003  78.409 117.947  0.00  0.00    -0.276 OA
ATOM     17  H   LIG d   1      -8.938  76.471 120.203  0.00  0.00     0.149 HD
ENDBRANCH   6  13
BRANCH   5  18
ATOM     18  N   LIG d   1     -11.247  75.652 117.336  0.00  0.00     0.381 N 
ATOM     19  H   LIG d   1     -12.092  75.323 117.760  0.00  0.00    -0.090 HD
ATOM     20  H   LIG d   1     -11.312  75.501 116.345  0.00  0.00    -0.090 HD
ATOM     21  H   LIG d   1     -11.129  76.623 117.525  0.00  0.00    -0.090 HD
ENDBRANCH   5  18
BRANCH   3  22
ATOM     22  C   LIG d   1      -8.399  71.863 116.651  0.00  0.00     0.382 C 
ATOM     23  O   LIG d   1      -9.239  70.990 116.974  0.00  0.00    -0.241 OA
ATOM     24  O   LIG d   1      -7.424  71.544 115.943  0.00  0.00    -0.241 OA
ENDBRANCH   3  22
TORSDOF 7
ENDMDL
MODEL 2
REMARK VINA RESULT:      -5.2      2.061      2.873
REMARK  7 active torsions:
REMARK  status: ('A' for Active; 'I' for Inactive)
REMARK    1  A    between atoms: C_2  and  C_3 
REMARK    2  A    between atoms: C_3  and  O_6 
REMARK    3  A    between atoms: C_3  and  C_4 
REMARK    4  A    between atoms: C_7  and  O_6 
REMARK    5  A    between atoms: C_9  and  C_10 
REMARK    6  A    between atoms: N_15  and  C_14 
REMARK    7  A    between atoms: N_20  and  C_19 
REMARK       I    between atoms: C_22  and  N_20 
ROOT
ATOM      1  C   LIG d   1      -5.762  75.041 117.675  0.00  0.00     0.161 C 
ATOM      2  C   LIG d   1      -6.253  73.808 117.216  0.00  0.00     0.016 C 
ATOM      3  C   LIG d   1      -7.608  73.587 116.878  0.00  0.00     0.038 C 
ATOM      4  C   LIG d   1      -8.541  74.633 116.832  0.00  0.00     0.028 C 
ATOM      5  C   LIG d   1      -8.204  75.787 117.771  0.00  0.00    -0.047 C 
ATOM      6  C   LIG d   1      -6.742  76.224 117.524  0.00  0.00     0.091 C 
ENDROOT
BRANCH   1   7
ATOM      7  O   LIG d   1      -4.511  75.341 117.024  0.00  0.00    -0.368 OA
BRANCH   7   8
ATOM      8  C   LIG d   1      -3.334  75.330 117.869  0.00  0.00     0.119 C 
BRANCH   8   9
ATOM      9  C   LIG d   1      -2.399  76.450 117.375  0.00  0.00     0.028 C 
ATOM     10  C   LIG d   1      -3.115  77.447 116.448  0.00  0.00     0.006 C 
ENDBRANCH   8   9
BRANCH   8  11
ATOM     11  C   LIG d   1      -2.539  74.032 117.699  0.00  0.00     0.028 C 
ATOM     12  C   LIG d   1      -1.564  74.082 116.512  0.00  0.00     0.006 C 
ENDBRANCH   8  11
ENDBRANCH   7   8
ENDBRANCH   1   7
BRANCH   6  13
ATOM     13  N   LIG d   1      -6.304  77.292 118.460  0.00  0.00    -0.311 N 
ATOM     14  C   LIG d   1      -6.121  78.559 118.092  0.00  0.00     0.210 C 
ATOM     15  C   LIG d   1      -5.649  79.495 119.209  0.00  0.00     0.109 C 
ATOM     16  O   LIG d   1      -6.336  79.003 116.954  0.00  0.00    -0.276 OA
ATOM     17  H   LIG d   1      -6.137  77.026 119.411  0.00  0.00     0.149 HD
ENDBRANCH   6  13
BRANCH   5  18
ATOM     18  N   LIG d   1      -9.180  76.865 117.520  0.00  0.00     0.381 N 
ATOM     19  H   LIG d   1      -9.129  77.151 116.563  0.00  0.00    -0.090 HD
ATOM     20  H   LIG d   1      -8.948  77.653 118.098  0.00  0.00    -0.090 HD
ATOM     21  H   LIG d   1     -10.100  76.548 117.731  0.00  0.00    -0.090 HD
ENDBRANCH   5  18
BRANCH   3  22
ATOM     22  C   LIG d   1      -8.051  72.298 116.621  0.00  0.00     0.382 C 
ATOM     23  O   LIG d   1      -7.306  71.488 116.017  0.00  0.00    -0.241 OA
ATOM     24  O   LIG d   1      -9.201  71.949 116.945  0.00  0.00    -0.241 OA
ENDBRANCH   3  22
TORSDOF 7
ENDMDL
MODEL 3
REMARK VINA RESULT:      -5.2     14.804     16.880
REMARK  7 active torsions:
REMARK  status: ('A' for Active; 'I' for Inactive)
REMARK    1  A    between atoms: C_2  and  C_3 
REMARK    2  A    between atoms: C_3  and  O_6 
REMARK    3  A    between atoms: C_3  and  C_4 
REMARK    4  A    between atoms: C_7  and  O_6 
REMARK    5  A    between atoms: C_9  and  C_10 
REMARK    6  A    between atoms: N_15  and  C_14 
REMARK    7  A    between atoms: N_20  and  C_19 
REMARK       I    between atoms: C_22  and  N_20 
ROOT
ATOM      1  C   LIG d   1      -3.964  91.003 117.568  0.00  0.00     0.161 C 
ATOM      2  C   LIG d   1      -4.533  90.348 116.464  0.00  0.00     0.016 C 
ATOM      3  C   LIG d   1      -5.658  90.838 115.763  0.00  0.00     0.038 C 
ATOM      4  C   LIG d   1      -6.203  92.104 116.028  0.00  0.00     0.028 C 
ATOM      5  C   LIG d   1      -5.977  92.573 117.461  0.00  0.00    -0.047 C 
ATOM      6  C   LIG d   1      -4.476  92.440 117.802  0.00  0.00     0.091 C 
ENDROOT
BRANCH   1   7
ATOM      7  O   LIG d   1      -2.527  90.996 117.454  0.00  0.00    -0.368 OA
BRANCH   7   8
ATOM      8  C   LIG d   1      -1.818  90.140 118.384  0.00  0.00     0.119 C 
BRANCH   8   9
ATOM      9  C   LIG d   1      -1.212  88.978 117.574  0.00  0.00     0.028 C 
ATOM     10  C   LIG d   1      -2.093  87.717 117.608  0.00  0.00     0.006 C 
ENDBRANCH   8   9
BRANCH   8  11
ATOM     11  C   LIG d   1      -2.779  89.483 119.380  0.00  0.00     0.028 C 
ATOM     12  C   LIG d   1      -2.506  89.899 120.834  0.00  0.00     0.006 C 
ENDBRANCH   8  11
ENDBRANCH   7   8
ENDBRANCH   1   7
BRANCH   6  13
ATOM     13  N   LIG d   1      -4.181  92.798 119.214  0.00  0.00    -0.311 N 
ATOM     14  C   LIG d   1      -3.153  93.563 119.577  0.00  0.00     0.210 C 
ATOM     15  C   LIG d   1      -3.019  93.793 121.086  0.00  0.00     0.109 C 
ATOM     16  O   LIG d   1      -2.357  94.099 118.791  0.00  0.00    -0.276 OA
ATOM     17  H   LIG d   1      -4.794  92.432 119.915  0.00  0.00     0.149 HD
ENDBRANCH   6  13
BRANCH   5  18
ATOM     18  N   LIG d   1      -6.473  93.958 117.560  0.00  0.00     0.381 N 
ATOM     19  H   LIG d   1      -7.137  94.133 116.833  0.00  0.00    -0.090 HD
ATOM     20  H   LIG d   1      -5.700  94.589 117.439  0.00  0.00    -0.090 HD
ATOM     21  H   LIG d   1      -6.896  94.107 118.450  0.00  0.00    -0.090 HD
ENDBRANCH   5  18
BRANCH   3  22
ATOM     22  C   LIG d   1      -6.276  90.042 114.811  0.00  0.00     0.382 C 
ATOM     23  O   LIG d   1      -5.669  89.055 114.330  0.00  0.00    -0.241 OA
ATOM     24  O   LIG d   1      -7.416  90.323 114.395  0.00  0.00    -0.241 OA
ENDBRANCH   3  22
TORSDOF 7
ENDMDL
MODEL 4
REMARK VINA RESULT:      -4.8     14.389     16.668
REMARK  7 active torsions:
REMARK  status: ('A' for Active; 'I' for Inactive)
REMARK    1  A    between atoms: C_2  and  C_3 
REMARK    2  A    between atoms: C_3  and  O_6 
REMARK    3  A    between atoms: C_3  and  C_4 
REMARK    4  A    between atoms: C_7  and  O_6 
REMARK    5  A    between atoms: C_9  and  C_10 
REMARK    6  A    between atoms: N_15  and  C_14 
REMARK    7  A    between atoms: N_20  and  C_19 
REMARK       I    between atoms: C_22  and  N_20 
ROOT
ATOM      1  C   LIG d   1      -2.333  89.799 117.808  0.00  0.00     0.161 C 
ATOM      2  C   LIG d   1      -3.629  89.577 117.313  0.00  0.00     0.016 C 
ATOM      3  C   LIG d   1      -4.544  90.618 117.034  0.00  0.00     0.038 C 
ATOM      4  C   LIG d   1      -4.170  91.969 117.087  0.00  0.00     0.028 C 
ATOM      5  C   LIG d   1      -3.032  92.243 118.065  0.00  0.00    -0.047 C 
ATOM      6  C   LIG d   1      -1.868  91.270 117.767  0.00  0.00     0.091 C 
ENDROOT
BRANCH   1   7
ATOM      7  O   LIG d   1      -1.393  88.957 117.111  0.00  0.00    -0.368 OA
BRANCH   7   8
ATOM      8  C   LIG d   1      -1.282  87.594 117.590  0.00  0.00     0.119 C 
BRANCH   8   9
ATOM      9  C   LIG d   1      -0.954  87.657 119.094  0.00  0.00     0.028 C 
ATOM     10  C   LIG d   1      -0.923  86.265 119.747  0.00  0.00     0.006 C 
ENDBRANCH   8   9
BRANCH   8  11
ATOM     11  C   LIG d   1      -0.094  86.873 116.946  0.00  0.00     0.028 C 
ATOM     12  C   LIG d   1       1.136  87.780 116.782  0.00  0.00     0.006 C 
ENDBRANCH   8  11
ENDBRANCH   7   8
ENDBRANCH   1   7
BRANCH   6  13
ATOM     13  N   LIG d   1      -0.747  91.415 118.732  0.00  0.00    -0.311 N 
ATOM     14  C   LIG d   1       0.335  92.153 118.493  0.00  0.00     0.210 C 
ATOM     15  C   LIG d   1       1.380  92.149 119.613  0.00  0.00     0.109 C 
ATOM     16  O   LIG d   1       0.514  92.836 117.474  0.00  0.00    -0.276 OA
ATOM     17  H   LIG d   1      -0.825  90.919 119.599  0.00  0.00     0.149 HD
ENDBRANCH   6  13
BRANCH   5  18
ATOM     18  N   LIG d   1      -2.651  93.661 117.918  0.00  0.00     0.381 N 
ATOM     19  H   LIG d   1      -2.082  93.777 117.104  0.00  0.00    -0.090 HD
ATOM     20  H   LIG d   1      -2.113  93.938 118.721  0.00  0.00    -0.090 HD
ATOM     21  H   LIG d   1      -3.467  94.227 117.845  0.00  0.00    -0.090 HD
ENDBRANCH   5  18
BRANCH   3  22
ATOM     22  C   LIG d   1      -5.863  90.311 116.734  0.00  0.00     0.382 C 
ATOM     23  O   LIG d   1      -6.698  91.232 116.567  0.00  0.00    -0.241 OA
ATOM     24  O   LIG d   1      -6.237  89.125 116.672  0.00  0.00    -0.241 OA
ENDBRANCH   3  22
TORSDOF 7
ENDMDL
MODEL 5
REMARK VINA RESULT:      -4.8     15.114     18.089
REMARK  7 active torsions:
REMARK  status: ('A' for Active; 'I' for Inactive)
REMARK    1  A    between atoms: C_2  and  C_3 
REMARK    2  A    between atoms: C_3  and  O_6 
REMARK    3  A    between atoms: C_3  and  C_4 
REMARK    4  A    between atoms: C_7  and  O_6 
REMARK    5  A    between atoms: C_9  and  C_10 
REMARK    6  A    between atoms: N_15  and  C_14 
REMARK    7  A    between atoms: N_20  and  C_19 
REMARK       I    between atoms: C_22  and  N_20 
ROOT
ATOM      1  C   LIG d   1      -5.197  92.466 117.809  0.00  0.00     0.161 C 
ATOM      2  C   LIG d   1      -6.143  91.535 117.350  0.00  0.00     0.016 C 
ATOM      3  C   LIG d   1      -5.797  90.282 116.795  0.00  0.00     0.038 C 
ATOM      4  C   LIG d   1      -4.476  89.808 116.800  0.00  0.00     0.028 C 
ATOM      5  C   LIG d   1      -3.434  90.921 116.792  0.00  0.00    -0.047 C 
ATOM      6  C   LIG d   1      -3.758  91.921 117.925  0.00  0.00     0.091 C 
ENDROOT
BRANCH   1   7
ATOM      7  O   LIG d   1      -5.627  93.019 119.068  0.00  0.00    -0.368 OA
BRANCH   7   8
ATOM      8  C   LIG d   1      -5.973  94.426 119.062  0.00  0.00     0.119 C 
BRANCH   8   9
ATOM      9  C   LIG d   1      -4.911  95.167 119.897  0.00  0.00     0.028 C 
ATOM     10  C   LIG d   1      -4.356  94.304 121.042  0.00  0.00     0.006 C 
ENDBRANCH   8   9
BRANCH   8  11
ATOM     11  C   LIG d   1      -7.301  94.676 119.782  0.00  0.00     0.028 C 
ATOM     12  C   LIG d   1      -7.472  96.137 120.226  0.00  0.00     0.006 C 
ENDBRANCH   8  11
ENDBRANCH   7   8
ENDBRANCH   1   7
BRANCH   6  13
ATOM     13  N   LIG d   1      -2.835  93.087 117.934  0.00  0.00    -0.311 N 
ATOM     14  C   LIG d   1      -1.736  93.145 118.684  0.00  0.00     0.210 C 
ATOM     15  C   LIG d   1      -0.936  94.446 118.558  0.00  0.00     0.109 C 
ATOM     16  O   LIG d   1      -1.330  92.231 119.417  0.00  0.00    -0.276 OA
ATOM     17  H   LIG d   1      -3.072  93.860 117.345  0.00  0.00     0.149 HD
ENDBRANCH   6  13
BRANCH   5  18
ATOM     18  N   LIG d   1      -2.108  90.292 116.938  0.00  0.00     0.381 N 
ATOM     19  H   LIG d   1      -2.034  89.864 117.840  0.00  0.00    -0.090 HD
ATOM     20  H   LIG d   1      -1.401  91.002 116.867  0.00  0.00    -0.090 HD
ATOM     21  H   LIG d   1      -1.975  89.608 116.226  0.00  0.00    -0.090 HD
ENDBRANCH   5  18
BRANCH   3  22
ATOM     22  C   LIG d   1      -6.772  89.504 116.190  0.00  0.00     0.382 C 
ATOM     23  O   LIG d   1      -6.896  89.513 114.941  0.00  0.00    -0.241 OA
ATOM     24  O   LIG d   1      -7.559  88.828 116.880  0.00  0.00    -0.241 OA
ENDBRANCH   3  22
TORSDOF 7
ENDMDL
MODEL 6
REMARK VINA RESULT:      -4.5     16.601     19.296
REMARK  7 active torsions:
REMARK  status: ('A' for Active; 'I' for Inactive)
REMARK    1  A    between atoms: C_2  and  C_3 
REMARK    2  A    between atoms: C_3  and  O_6 
REMARK    3  A    between atoms: C_3  and  C_4 
REMARK    4  A    between atoms: C_7  and  O_6 
REMARK    5  A    between atoms: C_9  and  C_10 
REMARK    6  A    between atoms: N_15  and  C_14 
REMARK    7  A    between atoms: N_20  and  C_19 
REMARK       I    between atoms: C_22  and  N_20 
ROOT
ATOM      1  C   LIG d   1      10.080  76.643 115.071  0.00  0.00     0.161 C 
ATOM      2  C   LIG d   1      10.244  75.307 115.474  0.00  0.00     0.016 C 
ATOM      3  C   LIG d   1      11.468  74.607 115.367  0.00  0.00     0.038 C 
ATOM      4  C   LIG d   1      12.658  75.247 114.988  0.00  0.00     0.028 C 
ATOM      5  C   LIG d   1      12.434  76.461 114.093  0.00  0.00    -0.047 C 
ATOM      6  C   LIG d   1      11.394  77.390 114.759  0.00  0.00     0.091 C 
ENDROOT
BRANCH   1   7
ATOM      7  O   LIG d   1       9.318  77.361 116.061  0.00  0.00    -0.368 OA
BRANCH   7   8
ATOM      8  C   LIG d   1       7.882  77.377 115.872  0.00  0.00     0.119 C 
BRANCH   8   9
ATOM      9  C   LIG d   1       7.534  78.650 115.075  0.00  0.00     0.028 C 
ATOM     10  C   LIG d   1       8.147  79.916 115.695  0.00  0.00     0.006 C 
ENDBRANCH   8   9
BRANCH   8  11
ATOM     11  C   LIG d   1       7.145  77.521 117.207  0.00  0.00     0.028 C 
ATOM     12  C   LIG d   1       8.049  77.244 118.419  0.00  0.00     0.006 C 
ENDBRANCH   8  11
ENDBRANCH   7   8
ENDBRANCH   1   7
BRANCH   6  13
ATOM     13  N   LIG d   1      11.054  78.561 113.909  0.00  0.00    -0.311 N 
ATOM     14  C   LIG d   1      11.659  79.743 114.014  0.00  0.00     0.210 C 
ATOM     15  C   LIG d   1      11.142  80.821 113.055  0.00  0.00     0.109 C 
ATOM     16  O   LIG d   1      12.597  79.992 114.786  0.00  0.00    -0.276 OA
ATOM     17  H   LIG d   1      10.325  78.438 113.234  0.00  0.00     0.149 HD
ENDBRANCH   6  13
BRANCH   5  18
ATOM     18  N   LIG d   1      13.742  77.110 113.888  0.00  0.00     0.381 N 
ATOM     19  H   LIG d   1      14.372  76.471 113.446  0.00  0.00    -0.090 HD
ATOM     20  H   LIG d   1      14.124  77.362 114.783  0.00  0.00    -0.090 HD
ATOM     21  H   LIG d   1      13.634  77.924 113.324  0.00  0.00    -0.090 HD
ENDBRANCH   5  18
BRANCH   3  22
ATOM     22  C   LIG d   1      11.501  73.241 115.604  0.00  0.00     0.382 C 
ATOM     23  O   LIG d   1      11.541  72.439 114.640  0.00  0.00    -0.241 OA
ATOM     24  O   LIG d   1      11.447  72.800 116.768  0.00  0.00    -0.241 OA
ENDBRANCH   3  22
TORSDOF 7
ENDMDL
MODEL 7
REMARK VINA RESULT:      -4.4     15.728     18.748
REMARK  7 active torsions:
REMARK  status: ('A' for Active; 'I' for Inactive)
REMARK    1  A    between atoms: C_2  and  C_3 
REMARK    2  A    between atoms: C_3  and  O_6 
REMARK    3  A    between atoms: C_3  and  C_4 
REMARK    4  A    between atoms: C_7  and  O_6 
REMARK    5  A    between atoms: C_9  and  C_10 
REMARK    6  A    between atoms: N_15  and  C_14 
REMARK    7  A    between atoms: N_20  and  C_19 
REMARK       I    between atoms: C_22  and  N_20 
ROOT
ATOM      1  C   LIG d   1      -2.824  92.053 117.995  0.00  0.00     0.161 C 
ATOM      2  C   LIG d   1      -2.636  93.430 118.201  0.00  0.00     0.016 C 
ATOM      3  C   LIG d   1      -1.371  94.015 118.441  0.00  0.00     0.038 C 
ATOM      4  C   LIG d   1      -0.182  93.277 118.339  0.00  0.00     0.028 C 
ATOM      5  C   LIG d   1      -0.364  91.792 118.632  0.00  0.00    -0.047 C 
ATOM      6  C   LIG d   1      -1.527  91.249 117.771  0.00  0.00     0.091 C 
ENDROOT
BRANCH   1   7
ATOM      7  O   LIG d   1      -3.739  91.844 116.901  0.00  0.00    -0.368 OA
BRANCH   7   8
ATOM      8  C   LIG d   1      -5.142  92.052 117.195  0.00  0.00     0.119 C 
BRANCH   8   9
ATOM      9  C   LIG d   1      -5.659  90.785 117.905  0.00  0.00     0.028 C 
ATOM     10  C   LIG d   1      -6.103  91.063 119.351  0.00  0.00     0.006 C 
ENDBRANCH   8   9
BRANCH   8  11
ATOM     11  C   LIG d   1      -5.970  92.163 115.911  0.00  0.00     0.028 C 
ATOM     12  C   LIG d   1      -5.771  90.965 114.968  0.00  0.00     0.006 C 
ENDBRANCH   8  11
ENDBRANCH   7   8
ENDBRANCH   1   7
BRANCH   6  13
ATOM     13  N   LIG d   1      -1.827  89.822 118.057  0.00  0.00    -0.311 N 
ATOM     14  C   LIG d   1      -1.218  88.808 117.445  0.00  0.00     0.210 C 
ATOM     15  C   LIG d   1      -1.691  87.415 117.875  0.00  0.00     0.109 C 
ATOM     16  O   LIG d   1      -0.309  88.928 116.611  0.00  0.00    -0.276 OA
ATOM     17  H   LIG d   1      -2.530  89.633 118.745  0.00  0.00     0.149 HD
ENDBRANCH   6  13
BRANCH   5  18
ATOM     18  N   LIG d   1       0.922  91.122 118.356  0.00  0.00     0.381 N 
ATOM     19  H   LIG d   1       1.172  91.252 117.397  0.00  0.00    -0.090 HD
ATOM     20  H   LIG d   1       0.818  90.137 118.525  0.00  0.00    -0.090 HD
ATOM     21  H   LIG d   1       1.633  91.495 118.946  0.00  0.00    -0.090 HD
ENDBRANCH   5  18
BRANCH   3  22
ATOM     22  C   LIG d   1      -1.290  95.345 118.825  0.00  0.00     0.382 C 
ATOM     23  O   LIG d   1      -1.178  95.641 120.039  0.00  0.00    -0.241 OA
ATOM     24  O   LIG d   1      -1.373  96.253 117.977  0.00  0.00    -0.241 OA
ENDBRANCH   3  22
TORSDOF 7
ENDMDL
MODEL 8
REMARK VINA RESULT:      -4.4     15.645     18.230
REMARK  7 active torsions:
REMARK  status: ('A' for Active; 'I' for Inactive)
REMARK    1  A    between atoms: C_2  and  C_3 
REMARK    2  A    between atoms: C_3  and  O_6 
REMARK    3  A    between atoms: C_3  and  C_4 
REMARK    4  A    between atoms: C_7  and  O_6 
REMARK    5  A    between atoms: C_9  and  C_10 
REMARK    6  A    between atoms: N_15  and  C_14 
REMARK    7  A    between atoms: N_20  and  C_19 
REMARK       I    between atoms: C_22  and  N_20 
ROOT
ATOM      1  C   LIG d   1      -2.895  91.926 117.649  0.00  0.00     0.161 C 
ATOM      2  C   LIG d   1      -2.749  90.537 117.492  0.00  0.00     0.016 C 
ATOM      3  C   LIG d   1      -1.507  89.869 117.597  0.00  0.00     0.038 C 
ATOM      4  C   LIG d   1      -0.344  90.529 118.018  0.00  0.00     0.028 C 
ATOM      5  C   LIG d   1      -0.342  92.020 117.697  0.00  0.00    -0.047 C 
ATOM      6  C   LIG d   1      -1.656  92.646 118.219  0.00  0.00     0.091 C 
ENDROOT
BRANCH   1   7
ATOM      7  O   LIG d   1      -4.054  92.206 118.459  0.00  0.00    -0.368 OA
BRANCH   7   8
ATOM      8  C   LIG d   1      -5.293  91.586 118.035  0.00  0.00     0.119 C 
BRANCH   8   9
ATOM      9  C   LIG d   1      -6.062  92.620 117.189  0.00  0.00     0.028 C 
ATOM     10  C   LIG d   1      -6.233  92.171 115.728  0.00  0.00     0.006 C 
ENDBRANCH   8   9
BRANCH   8  11
ATOM     11  C   LIG d   1      -6.202  91.284 119.230  0.00  0.00     0.028 C 
ATOM     12  C   LIG d   1      -6.707  92.555 119.931  0.00  0.00     0.006 C 
ENDBRANCH   8  11
ENDBRANCH   7   8
ENDBRANCH   1   7
BRANCH   6  13
ATOM     13  N   LIG d   1      -1.774  94.087 117.872  0.00  0.00    -0.311 N 
ATOM     14  C   LIG d   1      -1.344  95.069 118.662  0.00  0.00     0.210 C 
ATOM     15  C   LIG d   1      -1.581  96.483 118.123  0.00  0.00     0.109 C 
ATOM     16  O   LIG d   1      -0.760  94.902 119.744  0.00  0.00    -0.276 OA
ATOM     17  H   LIG d   1      -2.207  94.311 116.997  0.00  0.00     0.149 HD
ENDBRANCH   6  13
BRANCH   5  18
ATOM     18  N   LIG d   1       0.863  92.607 118.313  0.00  0.00     0.381 N 
ATOM     19  H   LIG d   1       1.636  92.531 117.682  0.00  0.00    -0.090 HD
ATOM     20  H   LIG d   1       1.085  92.094 119.148  0.00  0.00    -0.090 HD
ATOM     21  H   LIG d   1       0.700  93.564 118.536  0.00  0.00    -0.090 HD
ENDBRANCH   5  18
BRANCH   3  22
ATOM     22  C   LIG d   1      -1.414  88.533 117.239  0.00  0.00     0.382 C 
ATOM     23  O   LIG d   1      -0.409  88.121 116.611  0.00  0.00    -0.241 OA
ATOM     24  O   LIG d   1      -2.342  87.743 117.498  0.00  0.00    -0.241 OA
ENDBRANCH   3  22
TORSDOF 7
ENDMDL
MODEL 9
REMARK VINA RESULT:      -4.4     10.687     13.650
REMARK  7 active torsions:
REMARK  status: ('A' for Active; 'I' for Inactive)
REMARK    1  A    between atoms: C_2  and  C_3 
REMARK    2  A    between atoms: C_3  and  O_6 
REMARK    3  A    between atoms: C_3  and  C_4 
REMARK    4  A    between atoms: C_7  and  O_6 
REMARK    5  A    between atoms: C_9  and  C_10 
REMARK    6  A    between atoms: N_15  and  C_14 
REMARK    7  A    between atoms: N_20  and  C_19 
REMARK       I    between atoms: C_22  and  N_20 
ROOT
ATOM      1  C   LIG d   1     -16.494  66.006 118.127  0.00  0.00     0.161 C 
ATOM      2  C   LIG d   1     -16.661  67.395 118.001  0.00  0.00     0.016 C 
ATOM      3  C   LIG d   1     -16.089  68.332 118.892  0.00  0.00     0.038 C 
ATOM      4  C   LIG d   1     -15.180  67.948 119.889  0.00  0.00     0.028 C 
ATOM      5  C   LIG d   1     -15.379  66.515 120.370  0.00  0.00    -0.047 C 
ATOM      6  C   LIG d   1     -15.415  65.575 119.143  0.00  0.00     0.091 C 
ENDROOT
BRANCH   1   7
ATOM      7  O   LIG d   1     -16.226  65.427 116.835  0.00  0.00    -0.368 OA
BRANCH   7   8
ATOM      8  C   LIG d   1     -17.359  64.830 116.157  0.00  0.00     0.119 C 
BRANCH   8   9
ATOM      9  C   LIG d   1     -17.319  63.315 116.434  0.00  0.00     0.028 C 
ATOM     10  C   LIG d   1     -18.429  62.866 117.399  0.00  0.00     0.006 C 
ENDBRANCH   8   9
BRANCH   8  11
ATOM     11  C   LIG d   1     -17.234  64.968 114.637  0.00  0.00     0.028 C 
ATOM     12  C   LIG d   1     -18.569  64.754 113.907  0.00  0.00     0.006 C 
ENDBRANCH   8  11
ENDBRANCH   7   8
ENDBRANCH   1   7
BRANCH   6  13
ATOM     13  N   LIG d   1     -15.690  64.163 119.518  0.00  0.00    -0.311 N 
ATOM     14  C   LIG d   1     -14.906  63.145 119.168  0.00  0.00     0.210 C 
ATOM     15  C   LIG d   1     -15.383  61.769 119.642  0.00  0.00     0.109 C 
ATOM     16  O   LIG d   1     -13.844  63.255 118.538  0.00  0.00    -0.276 OA
ATOM     17  H   LIG d   1     -16.516  63.987 120.057  0.00  0.00     0.149 HD
ENDBRANCH   6  13
BRANCH   5  18
ATOM     18  N   LIG d   1     -14.282  66.202 121.305  0.00  0.00     0.381 N 
ATOM     19  H   LIG d   1     -13.410  66.507 120.919  0.00  0.00    -0.090 HD
ATOM     20  H   LIG d   1     -14.238  65.207 121.434  0.00  0.00    -0.090 HD
ATOM     21  H   LIG d   1     -14.441  66.651 122.180  0.00  0.00    -0.090 HD
ENDBRANCH   5  18
BRANCH   3  22
ATOM     22  C   LIG d   1     -16.457  69.667 118.815  0.00  0.00     0.382 C 
ATOM     23  O   LIG d   1     -16.216  70.325 117.773  0.00  0.00    -0.241 OA
ATOM     24  O   LIG d   1     -16.986  70.234 119.789  0.00  0.00    -0.241 OA
ENDBRANCH   3  22
TORSDOF 7
ENDMDL
