MODEL 1
REMARK VINA RESULT:      -5.5      0.000      0.000
REMARK  7 active torsions:
REMARK  status: ('A' for Active; 'I' for Inactive)
REMARK    1  A    between atoms: C_2  and  C_3 
REMARK    2  A    between atoms: C_3  and  O_6 
REMARK    3  A    between atoms: C_3  and  C_4 
REMARK    4  A    between atoms: C_7  and  O_6 
REMARK    5  A    between atoms: C_9  and  C_10 
REMARK    6  A    between atoms: N_15  and  C_14 
REMARK    7  A    between atoms: N_20  and  C_19 
REMARK       I    between atoms: C_22  and  N_20 
ROOT
ATOM      1  C   LIG d   1      -8.314  75.329 116.823  0.00  0.00     0.161 C 
ATOM      2  C   LIG d   1      -7.616  75.191 115.612  0.00  0.00     0.016 C 
ATOM      3  C   LIG d   1      -6.386  75.837 115.345  0.00  0.00     0.038 C 
ATOM      4  C   LIG d   1      -5.692  76.548 116.334  0.00  0.00     0.028 C 
ATOM      5  C   LIG d   1      -6.600  77.131 117.411  0.00  0.00    -0.047 C 
ATOM      6  C   LIG d   1      -7.517  76.011 117.955  0.00  0.00     0.091 C 
ENDROOT
BRANCH   1   7
ATOM      7  O   LIG d   1      -8.798  74.042 117.256  0.00  0.00    -0.368 OA
BRANCH   7   8
ATOM      8  C   LIG d   1      -8.055  72.890 116.787  0.00  0.00     0.119 C 
BRANCH   8   9
ATOM      9  C   LIG d   1      -9.061  71.739 116.591  0.00  0.00     0.028 C 
ATOM     10  C   LIG d   1      -8.852  70.599 117.601  0.00  0.00     0.006 C 
ENDBRANCH   8   9
BRANCH   8  11
ATOM     11  C   LIG d   1      -7.070  72.392 117.848  0.00  0.00     0.028 C 
ATOM     12  C   LIG d   1      -5.610  72.739 117.516  0.00  0.00     0.006 C 
ENDBRANCH   8  11
ENDBRANCH   7   8
ENDBRANCH   1   7
BRANCH   6  13
ATOM     13  N   LIG d   1      -8.496  76.514 118.954  0.00  0.00    -0.311 N 
ATOM     14  C   LIG d   1      -8.298  76.453 120.269  0.00  0.00     0.210 C 
ATOM     15  C   LIG d   1      -9.442  77.010 121.122  0.00  0.00     0.109 C 
ATOM     16  O   LIG d   1      -7.269  76.020 120.810  0.00  0.00    -0.276 OA
ATOM     17  H   LIG d   1      -9.345  76.911 118.601  0.00  0.00     0.149 HD
ENDBRANCH   6  13
BRANCH   5  18
ATOM     18  N   LIG d   1      -5.737  77.726 118.449  0.00  0.00     0.381 N 
ATOM     19  H   LIG d   1      -6.110  78.609 118.735  0.00  0.00    -0.090 HD
ATOM     20  H   LIG d   1      -4.823  77.880 118.062  0.00  0.00    -0.090 HD
ATOM     21  H   LIG d   1      -5.675  77.114 119.233  0.00  0.00    -0.090 HD
ENDBRANCH   5  18
BRANCH   3  22
ATOM     22  C   LIG d   1      -5.859  75.807 114.063  0.00  0.00     0.382 C 
ATOM     23  O   LIG d   1      -4.657  75.492 113.886  0.00  0.00    -0.241 OA
ATOM     24  O   LIG d   1      -6.557  76.133 113.084  0.00  0.00    -0.241 OA
ENDBRANCH   3  22
TORSDOF 7
ENDMDL
MODEL 2
REMARK VINA RESULT:      -5.3      2.391      4.162
REMARK  7 active torsions:
REMARK  status: ('A' for Active; 'I' for Inactive)
REMARK    1  A    between atoms: C_2  and  C_3 
REMARK    2  A    between atoms: C_3  and  O_6 
REMARK    3  A    between atoms: C_3  and  C_4 
REMARK    4  A    between atoms: C_7  and  O_6 
REMARK    5  A    between atoms: C_9  and  C_10 
REMARK    6  A    between atoms: N_15  and  C_14 
REMARK    7  A    between atoms: N_20  and  C_19 
REMARK       I    between atoms: C_22  and  N_20 
ROOT
ATOM      1  C   LIG d   1      -6.967  74.608 118.668  0.00  0.00     0.161 C 
ATOM      2  C   LIG d   1      -8.256  75.165 118.664  0.00  0.00     0.016 C 
ATOM      3  C   LIG d   1      -8.580  76.374 118.005  0.00  0.00     0.038 C 
ATOM      4  C   LIG d   1      -7.663  77.034 117.174  0.00  0.00     0.028 C 
ATOM      5  C   LIG d   1      -6.208  76.780 117.555  0.00  0.00    -0.047 C 
ATOM      6  C   LIG d   1      -5.979  75.256 117.674  0.00  0.00     0.091 C 
ENDROOT
BRANCH   1   7
ATOM      7  O   LIG d   1      -7.047  73.187 118.440  0.00  0.00    -0.368 OA
BRANCH   7   8
ATOM      8  C   LIG d   1      -7.847  72.768 117.307  0.00  0.00     0.119 C 
BRANCH   8   9
ATOM      9  C   LIG d   1      -8.815  71.676 117.802  0.00  0.00     0.028 C 
ATOM     10  C   LIG d   1      -9.232  70.709 116.681  0.00  0.00     0.006 C 
ENDBRANCH   8   9
BRANCH   8  11
ATOM     11  C   LIG d   1      -6.985  72.091 116.237  0.00  0.00     0.028 C 
ATOM     12  C   LIG d   1      -5.800  71.313 116.830  0.00  0.00     0.006 C 
ENDBRANCH   8  11
ENDBRANCH   7   8
ENDBRANCH   1   7
BRANCH   6  13
ATOM     13  N   LIG d   1      -4.603  74.923 118.126  0.00  0.00    -0.311 N 
ATOM     14  C   LIG d   1      -3.594  74.686 117.289  0.00  0.00     0.210 C 
ATOM     15  C   LIG d   1      -2.263  74.341 117.963  0.00  0.00     0.109 C 
ATOM     16  O   LIG d   1      -3.668  74.760 116.053  0.00  0.00    -0.276 OA
ATOM     17  H   LIG d   1      -4.447  74.872 119.113  0.00  0.00     0.149 HD
ENDBRANCH   6  13
BRANCH   5  18
ATOM     18  N   LIG d   1      -5.361  77.413 116.526  0.00  0.00     0.381 N 
ATOM     19  H   LIG d   1      -5.853  78.174 116.104  0.00  0.00    -0.090 HD
ATOM     20  H   LIG d   1      -5.155  76.736 115.813  0.00  0.00    -0.090 HD
ATOM     21  H   LIG d   1      -4.515  77.742 116.937  0.00  0.00    -0.090 HD
ENDBRANCH   5  18
BRANCH   3  22
ATOM     22  C   LIG d   1      -9.822  76.956 118.208  0.00  0.00     0.382 C 
ATOM     23  O   LIG d   1     -10.852  76.240 118.240  0.00  0.00    -0.241 OA
ATOM     24  O   LIG d   1      -9.931  78.192 118.315  0.00  0.00    -0.241 OA
ENDBRANCH   3  22
TORSDOF 7
ENDMDL
MODEL 3
REMARK VINA RESULT:      -5.2      2.486      3.262
REMARK  7 active torsions:
REMARK  status: ('A' for Active; 'I' for Inactive)
REMARK    1  A    between atoms: C_2  and  C_3 
REMARK    2  A    between atoms: C_3  and  O_6 
REMARK    3  A    between atoms: C_3  and  C_4 
REMARK    4  A    between atoms: C_7  and  O_6 
REMARK    5  A    between atoms: C_9  and  C_10 
REMARK    6  A    between atoms: N_15  and  C_14 
REMARK    7  A    between atoms: N_20  and  C_19 
REMARK       I    between atoms: C_22  and  N_20 
ROOT
ATOM      1  C   LIG d   1      -5.493  74.420 117.470  0.00  0.00     0.161 C 
ATOM      2  C   LIG d   1      -4.262  74.126 116.859  0.00  0.00     0.016 C 
ATOM      3  C   LIG d   1      -3.036  74.701 117.264  0.00  0.00     0.038 C 
ATOM      4  C   LIG d   1      -2.935  75.500 118.413  0.00  0.00     0.028 C 
ATOM      5  C   LIG d   1      -4.229  76.227 118.761  0.00  0.00    -0.047 C 
ATOM      6  C   LIG d   1      -5.386  75.203 118.796  0.00  0.00     0.091 C 
ENDROOT
BRANCH   1   7
ATOM      7  O   LIG d   1      -6.244  73.205 117.665  0.00  0.00    -0.368 OA
BRANCH   7   8
ATOM      8  C   LIG d   1      -7.296  72.946 116.703  0.00  0.00     0.119 C 
BRANCH   8   9
ATOM      9  C   LIG d   1      -8.614  73.471 117.305  0.00  0.00     0.028 C 
ATOM     10  C   LIG d   1      -9.094  74.765 116.627  0.00  0.00     0.006 C 
ENDBRANCH   8   9
BRANCH   8  11
ATOM     11  C   LIG d   1      -7.511  71.442 116.505  0.00  0.00     0.028 C 
ATOM     12  C   LIG d   1      -8.957  71.005 116.791  0.00  0.00     0.006 C 
ENDBRANCH   8  11
ENDBRANCH   7   8
ENDBRANCH   1   7
BRANCH   6  13
ATOM     13  N   LIG d   1      -6.703  75.844 119.047  0.00  0.00    -0.311 N 
ATOM     14  C   LIG d   1      -7.259  75.930 120.254  0.00  0.00     0.210 C 
ATOM     15  C   LIG d   1      -8.630  76.612 120.288  0.00  0.00     0.109 C 
ATOM     16  O   LIG d   1      -6.731  75.535 121.305  0.00  0.00    -0.276 OA
ATOM     17  H   LIG d   1      -7.186  76.219 118.254  0.00  0.00     0.149 HD
ENDBRANCH   6  13
BRANCH   5  18
ATOM     18  N   LIG d   1      -4.023  76.910 120.053  0.00  0.00     0.381 N 
ATOM     19  H   LIG d   1      -4.836  77.443 120.287  0.00  0.00    -0.090 HD
ATOM     20  H   LIG d   1      -3.246  77.542 119.966  0.00  0.00    -0.090 HD
ATOM     21  H   LIG d   1      -3.838  76.241 120.767  0.00  0.00    -0.090 HD
ENDBRANCH   5  18
BRANCH   3  22
ATOM     22  C   LIG d   1      -1.900  74.511 116.492  0.00  0.00     0.382 C 
ATOM     23  O   LIG d   1      -1.896  74.858 115.286  0.00  0.00    -0.241 OA
ATOM     24  O   LIG d   1      -0.894  73.958 116.974  0.00  0.00    -0.241 OA
ENDBRANCH   3  22
TORSDOF 7
ENDMDL
MODEL 4
REMARK VINA RESULT:      -5.2      2.385      4.461
REMARK  7 active torsions:
REMARK  status: ('A' for Active; 'I' for Inactive)
REMARK    1  A    between atoms: C_2  and  C_3 
REMARK    2  A    between atoms: C_3  and  O_6 
REMARK    3  A    between atoms: C_3  and  C_4 
REMARK    4  A    between atoms: C_7  and  O_6 
REMARK    5  A    between atoms: C_9  and  C_10 
REMARK    6  A    between atoms: N_15  and  C_14 
REMARK    7  A    between atoms: N_20  and  C_19 
REMARK       I    between atoms: C_22  and  N_20 
ROOT
ATOM      1  C   LIG d   1      -6.371  74.524 118.553  0.00  0.00     0.161 C 
ATOM      2  C   LIG d   1      -6.573  73.289 117.915  0.00  0.00     0.016 C 
ATOM      3  C   LIG d   1      -7.776  72.940 117.260  0.00  0.00     0.038 C 
ATOM      4  C   LIG d   1      -8.811  73.866 117.067  0.00  0.00     0.028 C 
ATOM      5  C   LIG d   1      -8.853  74.958 118.130  0.00  0.00    -0.047 C 
ATOM      6  C   LIG d   1      -7.447  75.589 118.257  0.00  0.00     0.091 C 
ENDROOT
BRANCH   1   7
ATOM      7  O   LIG d   1      -5.061  75.032 118.230  0.00  0.00    -0.368 OA
BRANCH   7   8
ATOM      8  C   LIG d   1      -4.395  74.408 117.105  0.00  0.00     0.119 C 
BRANCH   8   9
ATOM      9  C   LIG d   1      -2.900  74.290 117.459  0.00  0.00     0.028 C 
ATOM     10  C   LIG d   1      -1.988  74.831 116.345  0.00  0.00     0.006 C 
ENDBRANCH   8   9
BRANCH   8  11
ATOM     11  C   LIG d   1      -4.447  75.301 115.861  0.00  0.00     0.028 C 
ATOM     12  C   LIG d   1      -5.366  74.740 114.764  0.00  0.00     0.006 C 
ENDBRANCH   8  11
ENDBRANCH   7   8
ENDBRANCH   1   7
BRANCH   6  13
ATOM     13  N   LIG d   1      -7.379  76.609 119.336  0.00  0.00    -0.311 N 
ATOM     14  C   LIG d   1      -7.569  77.911 119.127  0.00  0.00     0.210 C 
ATOM     15  C   LIG d   1      -7.435  78.792 120.372  0.00  0.00     0.109 C 
ATOM     16  O   LIG d   1      -7.868  78.415 118.034  0.00  0.00    -0.276 OA
ATOM     17  H   LIG d   1      -7.172  76.283 120.259  0.00  0.00     0.149 HD
ENDBRANCH   6  13
BRANCH   5  18
ATOM     18  N   LIG d   1      -9.889  75.930 117.731  0.00  0.00     0.381 N 
ATOM     19  H   LIG d   1     -10.527  75.501 117.091  0.00  0.00    -0.090 HD
ATOM     20  H   LIG d   1      -9.447  76.703 117.266  0.00  0.00    -0.090 HD
ATOM     21  H   LIG d   1     -10.381  76.253 118.535  0.00  0.00    -0.090 HD
ENDBRANCH   5  18
BRANCH   3  22
ATOM     22  C   LIG d   1      -7.968  71.637 116.824  0.00  0.00     0.382 C 
ATOM     23  O   LIG d   1      -9.113  71.252 116.485  0.00  0.00    -0.241 OA
ATOM     24  O   LIG d   1      -7.019  70.830 116.807  0.00  0.00    -0.241 OA
ENDBRANCH   3  22
TORSDOF 7
ENDMDL
MODEL 5
REMARK VINA RESULT:      -4.8      2.608      4.685
REMARK  7 active torsions:
REMARK  status: ('A' for Active; 'I' for Inactive)
REMARK    1  A    between atoms: C_2  and  C_3 
REMARK    2  A    between atoms: C_3  and  O_6 
REMARK    3  A    between atoms: C_3  and  C_4 
REMARK    4  A    between atoms: C_7  and  O_6 
REMARK    5  A    between atoms: C_9  and  C_10 
REMARK    6  A    between atoms: N_15  and  C_14 
REMARK    7  A    between atoms: N_20  and  C_19 
REMARK       I    between atoms: C_22  and  N_20 
ROOT
ATOM      1  C   LIG d   1      -7.029  76.423 117.120  0.00  0.00     0.161 C 
ATOM      2  C   LIG d   1      -6.811  77.791 117.356  0.00  0.00     0.016 C 
ATOM      3  C   LIG d   1      -7.727  78.617 118.048  0.00  0.00     0.038 C 
ATOM      4  C   LIG d   1      -8.860  78.094 118.687  0.00  0.00     0.028 C 
ATOM      5  C   LIG d   1      -9.379  76.811 118.047  0.00  0.00    -0.047 C 
ATOM      6  C   LIG d   1      -8.208  75.812 117.906  0.00  0.00     0.091 C 
ENDROOT
BRANCH   1   7
ATOM      7  O   LIG d   1      -5.819  75.684 117.376  0.00  0.00    -0.368 OA
BRANCH   7   8
ATOM      8  C   LIG d   1      -4.904  75.553 116.261  0.00  0.00     0.119 C 
BRANCH   8   9
ATOM      9  C   LIG d   1      -5.617  74.730 115.171  0.00  0.00     0.028 C 
ATOM     10  C   LIG d   1      -5.660  75.459 113.818  0.00  0.00     0.006 C 
ENDBRANCH   8   9
BRANCH   8  11
ATOM     11  C   LIG d   1      -3.669  74.733 116.646  0.00  0.00     0.028 C 
ATOM     12  C   LIG d   1      -2.360  75.344 116.122  0.00  0.00     0.006 C 
ENDBRANCH   8  11
ENDBRANCH   7   8
ENDBRANCH   1   7
BRANCH   6  13
ATOM     13  N   LIG d   1      -8.610  74.561 117.212  0.00  0.00    -0.311 N 
ATOM     14  C   LIG d   1      -8.203  73.350 117.588  0.00  0.00     0.210 C 
ATOM     15  C   LIG d   1      -8.720  72.196 116.722  0.00  0.00     0.109 C 
ATOM     16  O   LIG d   1      -7.490  73.119 118.575  0.00  0.00    -0.276 OA
ATOM     17  H   LIG d   1      -9.214  74.654 116.418  0.00  0.00     0.149 HD
ENDBRANCH   6  13
BRANCH   5  18
ATOM     18  N   LIG d   1     -10.475  76.302 118.893  0.00  0.00     0.381 N 
ATOM     19  H   LIG d   1     -11.037  75.660 118.370  0.00  0.00    -0.090 HD
ATOM     20  H   LIG d   1     -11.055  77.073 119.173  0.00  0.00    -0.090 HD
ATOM     21  H   LIG d   1     -10.102  75.848 119.698  0.00  0.00    -0.090 HD
ENDBRANCH   5  18
BRANCH   3  22
ATOM     22  C   LIG d   1      -7.532  79.990 118.072  0.00  0.00     0.382 C 
ATOM     23  O   LIG d   1      -8.081  80.716 117.209  0.00  0.00    -0.241 OA
ATOM     24  O   LIG d   1      -6.777  80.506 118.918  0.00  0.00    -0.241 OA
ENDBRANCH   3  22
TORSDOF 7
ENDMDL
MODEL 6
REMARK VINA RESULT:      -4.7      2.592      5.064
REMARK  7 active torsions:
REMARK  status: ('A' for Active; 'I' for Inactive)
REMARK    1  A    between atoms: C_2  and  C_3 
REMARK    2  A    between atoms: C_3  and  O_6 
REMARK    3  A    between atoms: C_3  and  C_4 
REMARK    4  A    between atoms: C_7  and  O_6 
REMARK    5  A    between atoms: C_9  and  C_10 
REMARK    6  A    between atoms: N_15  and  C_14 
REMARK    7  A    between atoms: N_20  and  C_19 
REMARK       I    between atoms: C_22  and  N_20 
ROOT
ATOM      1  C   LIG d   1      -6.628  76.956 117.444  0.00  0.00     0.161 C 
ATOM      2  C   LIG d   1      -7.791  77.561 117.948  0.00  0.00     0.016 C 
ATOM      3  C   LIG d   1      -7.956  78.961 118.057  0.00  0.00     0.038 C 
ATOM      4  C   LIG d   1      -7.021  79.861 117.526  0.00  0.00     0.028 C 
ATOM      5  C   LIG d   1      -5.605  79.298 117.464  0.00  0.00    -0.047 C 
ATOM      6  C   LIG d   1      -5.642  77.924 116.757  0.00  0.00     0.091 C 
ENDROOT
BRANCH   1   7
ATOM      7  O   LIG d   1      -6.983  75.884 116.550  0.00  0.00    -0.368 OA
BRANCH   7   8
ATOM      8  C   LIG d   1      -7.121  74.572 117.150  0.00  0.00     0.119 C 
BRANCH   8   9
ATOM      9  C   LIG d   1      -6.150  73.624 116.420  0.00  0.00     0.028 C 
ATOM     10  C   LIG d   1      -5.701  74.179 115.058  0.00  0.00     0.006 C 
ENDBRANCH   8   9
BRANCH   8  11
ATOM     11  C   LIG d   1      -8.516  73.991 116.905  0.00  0.00     0.028 C 
ATOM     12  C   LIG d   1      -8.584  72.477 117.159  0.00  0.00     0.006 C 
ENDBRANCH   8  11
ENDBRANCH   7   8
ENDBRANCH   1   7
BRANCH   6  13
ATOM     13  N   LIG d   1      -4.310  77.265 116.729  0.00  0.00    -0.311 N 
ATOM     14  C   LIG d   1      -3.622  77.048 115.610  0.00  0.00     0.210 C 
ATOM     15  C   LIG d   1      -2.280  76.336 115.803  0.00  0.00     0.109 C 
ATOM     16  O   LIG d   1      -3.982  77.408 114.478  0.00  0.00    -0.276 OA
ATOM     17  H   LIG d   1      -3.929  76.969 117.607  0.00  0.00     0.149 HD
ENDBRANCH   6  13
BRANCH   5  18
ATOM     18  N   LIG d   1      -4.762  80.286 116.765  0.00  0.00     0.381 N 
ATOM     19  H   LIG d   1      -4.713  80.061 115.791  0.00  0.00    -0.090 HD
ATOM     20  H   LIG d   1      -3.832  80.247 117.144  0.00  0.00    -0.090 HD
ATOM     21  H   LIG d   1      -5.139  81.201 116.883  0.00  0.00    -0.090 HD
ENDBRANCH   5  18
BRANCH   3  22
ATOM     22  C   LIG d   1      -9.049  79.473 118.740  0.00  0.00     0.382 C 
ATOM     23  O   LIG d   1      -8.876  80.281 119.684  0.00  0.00    -0.241 OA
ATOM     24  O   LIG d   1     -10.203  79.104 118.453  0.00  0.00    -0.241 OA
ENDBRANCH   3  22
TORSDOF 7
ENDMDL
MODEL 7
REMARK VINA RESULT:      -4.6      2.747      4.735
REMARK  7 active torsions:
REMARK  status: ('A' for Active; 'I' for Inactive)
REMARK    1  A    between atoms: C_2  and  C_3 
REMARK    2  A    between atoms: C_3  and  O_6 
REMARK    3  A    between atoms: C_3  and  C_4 
REMARK    4  A    between atoms: C_7  and  O_6 
REMARK    5  A    between atoms: C_9  and  C_10 
REMARK    6  A    between atoms: N_15  and  C_14 
REMARK    7  A    between atoms: N_20  and  C_19 
REMARK       I    between atoms: C_22  and  N_20 
ROOT
ATOM      1  C   LIG d   1      -6.083  74.658 117.880  0.00  0.00     0.161 C 
ATOM      2  C   LIG d   1      -6.399  73.385 117.376  0.00  0.00     0.016 C 
ATOM      3  C   LIG d   1      -7.713  72.985 117.042  0.00  0.00     0.038 C 
ATOM      4  C   LIG d   1      -8.787  73.888 117.047  0.00  0.00     0.028 C 
ATOM      5  C   LIG d   1      -8.605  75.040 118.029  0.00  0.00    -0.047 C 
ATOM      6  C   LIG d   1      -7.224  75.692 117.787  0.00  0.00     0.091 C 
ENDROOT
BRANCH   1   7
ATOM      7  O   LIG d   1      -4.898  75.160 117.231  0.00  0.00    -0.368 OA
BRANCH   7   8
ATOM      8  C   LIG d   1      -3.648  74.943 117.929  0.00  0.00     0.119 C 
BRANCH   8   9
ATOM      9  C   LIG d   1      -3.293  76.251 118.662  0.00  0.00     0.028 C 
ATOM     10  C   LIG d   1      -3.556  76.166 120.175  0.00  0.00     0.006 C 
ENDBRANCH   8   9
BRANCH   8  11
ATOM     11  C   LIG d   1      -2.496  74.702 116.949  0.00  0.00     0.028 C 
ATOM     12  C   LIG d   1      -1.217  74.206 117.642  0.00  0.00     0.006 C 
ENDBRANCH   8  11
ENDBRANCH   7   8
ENDBRANCH   1   7
BRANCH   6  13
ATOM     13  N   LIG d   1      -6.930  76.775 118.762  0.00  0.00    -0.311 N 
ATOM     14  C   LIG d   1      -6.557  78.002 118.403  0.00  0.00     0.210 C 
ATOM     15  C   LIG d   1      -6.284  78.961 119.567  0.00  0.00     0.109 C 
ATOM     16  O   LIG d   1      -6.457  78.397 117.232  0.00  0.00    -0.276 OA
ATOM     17  H   LIG d   1      -7.017  76.550 119.734  0.00  0.00     0.149 HD
ENDBRANCH   6  13
BRANCH   5  18
ATOM     18  N   LIG d   1      -9.728  75.975 117.832  0.00  0.00     0.381 N 
ATOM     19  H   LIG d   1      -9.911  76.469 118.683  0.00  0.00    -0.090 HD
ATOM     20  H   LIG d   1     -10.550  75.450 117.589  0.00  0.00    -0.090 HD
ATOM     21  H   LIG d   1      -9.511  76.621 117.105  0.00  0.00    -0.090 HD
ENDBRANCH   5  18
BRANCH   3  22
ATOM     22  C   LIG d   1      -7.970  71.657 116.736  0.00  0.00     0.382 C 
ATOM     23  O   LIG d   1      -9.133  71.298 116.432  0.00  0.00    -0.241 OA
ATOM     24  O   LIG d   1      -7.063  70.806 116.803  0.00  0.00    -0.241 OA
ENDBRANCH   3  22
TORSDOF 7
ENDMDL
MODEL 8
REMARK VINA RESULT:      -4.6     16.281     18.701
REMARK  7 active torsions:
REMARK  status: ('A' for Active; 'I' for Inactive)
REMARK    1  A    between atoms: C_2  and  C_3 
REMARK    2  A    between atoms: C_3  and  O_6 
REMARK    3  A    between atoms: C_3  and  C_4 
REMARK    4  A    between atoms: C_7  and  O_6 
REMARK    5  A    between atoms: C_9  and  C_10 
REMARK    6  A    between atoms: N_15  and  C_14 
REMARK    7  A    between atoms: N_20  and  C_19 
REMARK       I    between atoms: C_22  and  N_20 
ROOT
ATOM      1  C   LIG d   1      -5.696  92.957 119.492  0.00  0.00     0.161 C 
ATOM      2  C   LIG d   1      -6.223  93.942 120.345  0.00  0.00     0.016 C 
ATOM      3  C   LIG d   1      -7.469  94.574 120.128  0.00  0.00     0.038 C 
ATOM      4  C   LIG d   1      -8.347  94.153 119.119  0.00  0.00     0.028 C 
ATOM      5  C   LIG d   1      -7.641  93.509 117.930  0.00  0.00    -0.047 C 
ATOM      6  C   LIG d   1      -6.690  92.407 118.448  0.00  0.00     0.091 C 
ENDROOT
BRANCH   1   7
ATOM      7  O   LIG d   1      -5.141  91.880 120.273  0.00  0.00    -0.368 OA
BRANCH   7   8
ATOM      8  C   LIG d   1      -3.699  91.868 120.408  0.00  0.00     0.119 C 
BRANCH   8   9
ATOM      9  C   LIG d   1      -3.135  92.935 119.450  0.00  0.00     0.028 C 
ATOM     10  C   LIG d   1      -2.082  93.831 120.124  0.00  0.00     0.006 C 
ENDBRANCH   8   9
BRANCH   8  11
ATOM     11  C   LIG d   1      -3.105  90.540 119.930  0.00  0.00     0.028 C 
ATOM     12  C   LIG d   1      -2.783  90.538 118.427  0.00  0.00     0.006 C 
ENDBRANCH   8  11
ENDBRANCH   7   8
ENDBRANCH   1   7
BRANCH   6  13
ATOM     13  N   LIG d   1      -5.897  91.783 117.357  0.00  0.00    -0.311 N 
ATOM     14  C   LIG d   1      -6.329  90.751 116.634  0.00  0.00     0.210 C 
ATOM     15  C   LIG d   1      -5.346  90.249 115.572  0.00  0.00     0.109 C 
ATOM     16  O   LIG d   1      -7.446  90.225 116.750  0.00  0.00    -0.276 OA
ATOM     17  H   LIG d   1      -4.991  92.168 117.174  0.00  0.00     0.149 HD
ENDBRANCH   6  13
BRANCH   5  18
ATOM     18  N   LIG d   1      -8.681  92.995 117.019  0.00  0.00     0.381 N 
ATOM     19  H   LIG d   1      -9.577  93.341 117.298  0.00  0.00    -0.090 HD
ATOM     20  H   LIG d   1      -8.698  91.992 117.079  0.00  0.00    -0.090 HD
ATOM     21  H   LIG d   1      -8.484  93.276 116.084  0.00  0.00    -0.090 HD
ENDBRANCH   5  18
BRANCH   3  22
ATOM     22  C   LIG d   1      -7.829  95.666 120.902  0.00  0.00     0.382 C 
ATOM     23  O   LIG d   1      -9.011  95.786 121.305  0.00  0.00    -0.241 OA
ATOM     24  O   LIG d   1      -6.998  96.556 121.165  0.00  0.00    -0.241 OA
ENDBRANCH   3  22
TORSDOF 7
ENDMDL
MODEL 9
REMARK VINA RESULT:      -4.6      3.450      6.000
REMARK  7 active torsions:
REMARK  status: ('A' for Active; 'I' for Inactive)
REMARK    1  A    between atoms: C_2  and  C_3 
REMARK    2  A    between atoms: C_3  and  O_6 
REMARK    3  A    between atoms: C_3  and  C_4 
REMARK    4  A    between atoms: C_7  and  O_6 
REMARK    5  A    between atoms: C_9  and  C_10 
REMARK    6  A    between atoms: N_15  and  C_14 
REMARK    7  A    between atoms: N_20  and  C_19 
REMARK       I    between atoms: C_22  and  N_20 
ROOT
ATOM      1  C   LIG d   1      -6.124  78.496 117.331  0.00  0.00     0.161 C 
ATOM      2  C   LIG d   1      -7.469  78.413 117.729  0.00  0.00     0.016 C 
ATOM      3  C   LIG d   1      -8.262  79.543 118.032  0.00  0.00     0.038 C 
ATOM      4  C   LIG d   1      -7.804  80.851 117.812  0.00  0.00     0.028 C 
ATOM      5  C   LIG d   1      -6.287  80.984 117.893  0.00  0.00    -0.047 C 
ATOM      6  C   LIG d   1      -5.641  79.918 116.978  0.00  0.00     0.091 C 
ENDROOT
BRANCH   1   7
ATOM      7  O   LIG d   1      -5.884  77.597 116.230  0.00  0.00    -0.368 OA
BRANCH   7   8
ATOM      8  C   LIG d   1      -5.760  76.194 116.568  0.00  0.00     0.119 C 
BRANCH   8   9
ATOM      9  C   LIG d   1      -4.322  75.760 116.224  0.00  0.00     0.028 C 
ATOM     10  C   LIG d   1      -3.353  75.952 117.403  0.00  0.00     0.006 C 
ENDBRANCH   8   9
BRANCH   8  11
ATOM     11  C   LIG d   1      -6.666  75.327 115.689  0.00  0.00     0.028 C 
ATOM     12  C   LIG d   1      -8.065  75.124 116.294  0.00  0.00     0.006 C 
ENDBRANCH   8  11
ENDBRANCH   7   8
ENDBRANCH   1   7
BRANCH   6  13
ATOM     13  N   LIG d   1      -4.157  79.923 117.062  0.00  0.00    -0.311 N 
ATOM     14  C   LIG d   1      -3.364  80.150 116.017  0.00  0.00     0.210 C 
ATOM     15  C   LIG d   1      -1.864  80.089 116.318  0.00  0.00     0.109 C 
ATOM     16  O   LIG d   1      -3.761  80.426 114.875  0.00  0.00    -0.276 OA
ATOM     17  H   LIG d   1      -3.751  79.739 117.959  0.00  0.00     0.149 HD
ENDBRANCH   6  13
BRANCH   5  18
ATOM     18  N   LIG d   1      -5.940  82.364 117.508  0.00  0.00     0.381 N 
ATOM     19  H   LIG d   1      -5.465  82.361 116.627  0.00  0.00    -0.090 HD
ATOM     20  H   LIG d   1      -5.319  82.748 118.199  0.00  0.00    -0.090 HD
ATOM     21  H   LIG d   1      -6.765  82.919 117.447  0.00  0.00    -0.090 HD
ENDBRANCH   5  18
BRANCH   3  22
ATOM     22  C   LIG d   1      -9.515  79.371 118.601  0.00  0.00     0.382 C 
ATOM     23  O   LIG d   1     -10.200  78.360 118.314  0.00  0.00    -0.241 OA
ATOM     24  O   LIG d   1      -9.987  80.236 119.363  0.00  0.00    -0.241 OA
ENDBRANCH   3  22
TORSDOF 7
ENDMDL
