MODEL 1
REMARK VINA RESULT:      -5.2      0.000      0.000
REMARK  7 active torsions:
REMARK  status: ('A' for Active; 'I' for Inactive)
REMARK    1  A    between atoms: C_2  and  C_3 
REMARK    2  A    between atoms: C_3  and  O_6 
REMARK    3  A    between atoms: C_3  and  C_4 
REMARK    4  A    between atoms: C_7  and  O_6 
REMARK    5  A    between atoms: C_9  and  C_10 
REMARK    6  A    between atoms: N_15  and  C_14 
REMARK    7  A    between atoms: N_20  and  C_19 
REMARK       I    between atoms: C_22  and  N_20 
ROOT
ATOM      1  C   LIG d   1      -3.786  90.487 117.745  0.00  0.00     0.161 C 
ATOM      2  C   LIG d   1      -4.555  90.007 116.672  0.00  0.00     0.016 C 
ATOM      3  C   LIG d   1      -5.601  90.746 116.072  0.00  0.00     0.038 C 
ATOM      4  C   LIG d   1      -5.850  92.085 116.408  0.00  0.00     0.028 C 
ATOM      5  C   LIG d   1      -5.432  92.440 117.831  0.00  0.00    -0.047 C 
ATOM      6  C   LIG d   1      -3.970  91.988 118.052  0.00  0.00     0.091 C 
ENDROOT
BRANCH   1   7
ATOM      7  O   LIG d   1      -2.394  90.189 117.521  0.00  0.00    -0.368 OA
BRANCH   7   8
ATOM      8  C   LIG d   1      -1.824  89.146 118.350  0.00  0.00     0.119 C 
BRANCH   8   9
ATOM      9  C   LIG d   1      -1.648  87.896 117.466  0.00  0.00     0.028 C 
ATOM     10  C   LIG d   1      -0.197  87.713 116.990  0.00  0.00     0.006 C 
ENDBRANCH   8   9
BRANCH   8  11
ATOM     11  C   LIG d   1      -2.792  88.725 119.459  0.00  0.00     0.028 C 
ATOM     12  C   LIG d   1      -2.708  87.226 119.786  0.00  0.00     0.006 C 
ENDBRANCH   8  11
ENDBRANCH   7   8
ENDBRANCH   1   7
BRANCH   6  13
ATOM     13  N   LIG d   1      -3.509  92.222 119.445  0.00  0.00    -0.311 N 
ATOM     14  C   LIG d   1      -2.855  93.317 119.827  0.00  0.00     0.210 C 
ATOM     15  C   LIG d   1      -2.453  93.349 121.305  0.00  0.00     0.109 C 
ATOM     16  O   LIG d   1      -2.596  94.280 119.089  0.00  0.00    -0.276 OA
ATOM     17  H   LIG d   1      -3.704  91.505 120.117  0.00  0.00     0.149 HD
ENDBRANCH   6  13
BRANCH   5  18
ATOM     18  N   LIG d   1      -5.620  93.893 118.001  0.00  0.00     0.381 N 
ATOM     19  H   LIG d   1      -6.467  94.180 117.553  0.00  0.00    -0.090 HD
ATOM     20  H   LIG d   1      -4.854  94.374 117.564  0.00  0.00    -0.090 HD
ATOM     21  H   LIG d   1      -5.655  94.121 118.971  0.00  0.00    -0.090 HD
ENDBRANCH   5  18
BRANCH   3  22
ATOM     22  C   LIG d   1      -6.436  90.132 115.151  0.00  0.00     0.382 C 
ATOM     23  O   LIG d   1      -6.002  89.195 114.439  0.00  0.00    -0.241 OA
ATOM     24  O   LIG d   1      -7.605  90.532 114.992  0.00  0.00    -0.241 OA
ENDBRANCH   3  22
TORSDOF 7
ENDMDL
MODEL 2
REMARK VINA RESULT:      -5.1     13.595     16.015
REMARK  7 active torsions:
REMARK  status: ('A' for Active; 'I' for Inactive)
REMARK    1  A    between atoms: C_2  and  C_3 
REMARK    2  A    between atoms: C_3  and  O_6 
REMARK    3  A    between atoms: C_3  and  C_4 
REMARK    4  A    between atoms: C_7  and  O_6 
REMARK    5  A    between atoms: C_9  and  C_10 
REMARK    6  A    between atoms: N_15  and  C_14 
REMARK    7  A    between atoms: N_20  and  C_19 
REMARK       I    between atoms: C_22  and  N_20 
ROOT
ATOM      1  C   LIG d   1      -2.672  75.884 116.627  0.00  0.00     0.161 C 
ATOM      2  C   LIG d   1      -2.142  75.384 115.426  0.00  0.00     0.016 C 
ATOM      3  C   LIG d   1      -0.899  74.715 115.342  0.00  0.00     0.038 C 
ATOM      4  C   LIG d   1      -0.167  74.366 116.487  0.00  0.00     0.028 C 
ATOM      5  C   LIG d   1      -0.416  75.293 117.671  0.00  0.00    -0.047 C 
ATOM      6  C   LIG d   1      -1.939  75.415 117.902  0.00  0.00     0.091 C 
ENDROOT
BRANCH   1   7
ATOM      7  O   LIG d   1      -4.076  75.568 116.712  0.00  0.00    -0.368 OA
BRANCH   7   8
ATOM      8  C   LIG d   1      -4.981  76.523 116.104  0.00  0.00     0.119 C 
BRANCH   8   9
ATOM      9  C   LIG d   1      -5.728  77.242 117.243  0.00  0.00     0.028 C 
ATOM     10  C   LIG d   1      -5.076  78.584 117.618  0.00  0.00     0.006 C 
ENDBRANCH   8   9
BRANCH   8  11
ATOM     11  C   LIG d   1      -6.068  75.817 115.288  0.00  0.00     0.028 C 
ATOM     12  C   LIG d   1      -5.569  75.347 113.912  0.00  0.00     0.006 C 
ENDBRANCH   8  11
ENDBRANCH   7   8
ENDBRANCH   1   7
BRANCH   6  13
ATOM     13  N   LIG d   1      -2.273  76.370 118.990  0.00  0.00    -0.311 N 
ATOM     14  C   LIG d   1      -2.322  76.028 120.277  0.00  0.00     0.210 C 
ATOM     15  C   LIG d   1      -2.706  77.162 121.233  0.00  0.00     0.109 C 
ATOM     16  O   LIG d   1      -2.052  74.902 120.720  0.00  0.00    -0.276 OA
ATOM     17  H   LIG d   1      -2.476  77.314 118.723  0.00  0.00     0.149 HD
ENDBRANCH   6  13
BRANCH   5  18
ATOM     18  N   LIG d   1       0.302  74.735 118.833  0.00  0.00     0.381 N 
ATOM     19  H   LIG d   1       1.177  74.350 118.537  0.00  0.00    -0.090 HD
ATOM     20  H   LIG d   1      -0.249  73.994 119.230  0.00  0.00    -0.090 HD
ATOM     21  H   LIG d   1       0.456  75.446 119.513  0.00  0.00    -0.090 HD
ENDBRANCH   5  18
BRANCH   3  22
ATOM     22  C   LIG d   1      -0.358  74.424 114.099  0.00  0.00     0.382 C 
ATOM     23  O   LIG d   1      -0.157  73.231 113.767  0.00  0.00    -0.241 OA
ATOM     24  O   LIG d   1      -0.027  75.341 113.324  0.00  0.00    -0.241 OA
ENDBRANCH   3  22
TORSDOF 7
ENDMDL
MODEL 3
REMARK VINA RESULT:      -5.1     12.122     14.594
REMARK  7 active torsions:
REMARK  status: ('A' for Active; 'I' for Inactive)
REMARK    1  A    between atoms: C_2  and  C_3 
REMARK    2  A    between atoms: C_3  and  O_6 
REMARK    3  A    between atoms: C_3  and  C_4 
REMARK    4  A    between atoms: C_7  and  O_6 
REMARK    5  A    between atoms: C_9  and  C_10 
REMARK    6  A    between atoms: N_15  and  C_14 
REMARK    7  A    between atoms: N_20  and  C_19 
REMARK       I    between atoms: C_22  and  N_20 
ROOT
ATOM      1  C   LIG d   1      -4.547  77.444 116.659  0.00  0.00     0.161 C 
ATOM      2  C   LIG d   1      -3.513  76.494 116.609  0.00  0.00     0.016 C 
ATOM      3  C   LIG d   1      -2.717  76.151 117.726  0.00  0.00     0.038 C 
ATOM      4  C   LIG d   1      -3.003  76.627 119.014  0.00  0.00     0.028 C 
ATOM      5  C   LIG d   1      -3.718  77.974 119.017  0.00  0.00    -0.047 C 
ATOM      6  C   LIG d   1      -4.945  77.892 118.081  0.00  0.00     0.091 C 
ENDROOT
BRANCH   1   7
ATOM      7  O   LIG d   1      -5.699  76.950 115.948  0.00  0.00    -0.368 OA
BRANCH   7   8
ATOM      8  C   LIG d   1      -5.746  75.519 115.725  0.00  0.00     0.119 C 
BRANCH   8   9
ATOM      9  C   LIG d   1      -5.712  75.287 114.202  0.00  0.00     0.028 C 
ATOM     10  C   LIG d   1      -6.762  76.127 113.457  0.00  0.00     0.006 C 
ENDBRANCH   8   9
BRANCH   8  11
ATOM     11  C   LIG d   1      -7.076  74.925 116.197  0.00  0.00     0.028 C 
ATOM     12  C   LIG d   1      -7.916  75.918 117.016  0.00  0.00     0.006 C 
ENDBRANCH   8  11
ENDBRANCH   7   8
ENDBRANCH   1   7
BRANCH   6  13
ATOM     13  N   LIG d   1      -5.654  79.193 117.960  0.00  0.00    -0.311 N 
ATOM     14  C   LIG d   1      -6.714  79.521 118.697  0.00  0.00     0.210 C 
ATOM     15  C   LIG d   1      -7.305  80.903 118.399  0.00  0.00     0.109 C 
ATOM     16  O   LIG d   1      -7.202  78.812 119.590  0.00  0.00    -0.276 OA
ATOM     17  H   LIG d   1      -5.305  79.841 117.281  0.00  0.00     0.149 HD
ENDBRANCH   6  13
BRANCH   5  18
ATOM     18  N   LIG d   1      -4.076  78.285 120.414  0.00  0.00     0.381 N 
ATOM     19  H   LIG d   1      -5.057  78.141 120.552  0.00  0.00    -0.090 HD
ATOM     20  H   LIG d   1      -3.871  79.252 120.595  0.00  0.00    -0.090 HD
ATOM     21  H   LIG d   1      -3.557  77.705 121.036  0.00  0.00    -0.090 HD
ENDBRANCH   5  18
BRANCH   3  22
ATOM     22  C   LIG d   1      -1.597  75.352 117.552  0.00  0.00     0.382 C 
ATOM     23  O   LIG d   1      -1.731  74.124 117.332  0.00  0.00    -0.241 OA
ATOM     24  O   LIG d   1      -0.454  75.835 117.657  0.00  0.00    -0.241 OA
ENDBRANCH   3  22
TORSDOF 7
ENDMDL
MODEL 4
REMARK VINA RESULT:      -5.1      2.422      4.959
REMARK  7 active torsions:
REMARK  status: ('A' for Active; 'I' for Inactive)
REMARK    1  A    between atoms: C_2  and  C_3 
REMARK    2  A    between atoms: C_3  and  O_6 
REMARK    3  A    between atoms: C_3  and  C_4 
REMARK    4  A    between atoms: C_7  and  O_6 
REMARK    5  A    between atoms: C_9  and  C_10 
REMARK    6  A    between atoms: N_15  and  C_14 
REMARK    7  A    between atoms: N_20  and  C_19 
REMARK       I    between atoms: C_22  and  N_20 
ROOT
ATOM      1  C   LIG d   1      -5.322  92.482 117.783  0.00  0.00     0.161 C 
ATOM      2  C   LIG d   1      -6.333  91.618 117.330  0.00  0.00     0.016 C 
ATOM      3  C   LIG d   1      -6.078  90.333 116.798  0.00  0.00     0.038 C 
ATOM      4  C   LIG d   1      -4.798  89.761 116.823  0.00  0.00     0.028 C 
ATOM      5  C   LIG d   1      -3.674  90.791 116.806  0.00  0.00    -0.047 C 
ATOM      6  C   LIG d   1      -3.930  91.831 117.921  0.00  0.00     0.091 C 
ENDROOT
BRANCH   1   7
ATOM      7  O   LIG d   1      -5.718  93.086 119.030  0.00  0.00    -0.368 OA
BRANCH   7   8
ATOM      8  C   LIG d   1      -6.093  94.484 118.969  0.00  0.00     0.119 C 
BRANCH   8   9
ATOM      9  C   LIG d   1      -5.262  95.233 120.029  0.00  0.00     0.028 C 
ATOM     10  C   LIG d   1      -4.659  96.540 119.487  0.00  0.00     0.006 C 
ENDBRANCH   8   9
BRANCH   8  11
ATOM     11  C   LIG d   1      -7.554  94.688 119.382  0.00  0.00     0.028 C 
ATOM     12  C   LIG d   1      -8.309  95.646 118.448  0.00  0.00     0.006 C 
ENDBRANCH   8  11
ENDBRANCH   7   8
ENDBRANCH   1   7
BRANCH   6  13
ATOM     13  N   LIG d   1      -2.921  92.923 117.920  0.00  0.00    -0.311 N 
ATOM     14  C   LIG d   1      -2.229  93.282 118.999  0.00  0.00     0.210 C 
ATOM     15  C   LIG d   1      -1.255  94.445 118.785  0.00  0.00     0.109 C 
ATOM     16  O   LIG d   1      -2.306  92.727 120.106  0.00  0.00    -0.276 OA
ATOM     17  H   LIG d   1      -2.773  93.406 117.056  0.00  0.00     0.149 HD
ENDBRANCH   6  13
BRANCH   5  18
ATOM     18  N   LIG d   1      -2.401  90.065 116.975  0.00  0.00     0.381 N 
ATOM     19  H   LIG d   1      -2.483  89.407 117.725  0.00  0.00    -0.090 HD
ATOM     20  H   LIG d   1      -1.679  90.723 117.210  0.00  0.00    -0.090 HD
ATOM     21  H   LIG d   1      -2.165  89.590 116.131  0.00  0.00    -0.090 HD
ENDBRANCH   5  18
BRANCH   3  22
ATOM     22  C   LIG d   1      -7.106  89.622 116.197  0.00  0.00     0.382 C 
ATOM     23  O   LIG d   1      -7.996  89.088 116.903  0.00  0.00    -0.241 OA
ATOM     24  O   LIG d   1      -7.130  89.470 114.961  0.00  0.00    -0.241 OA
ENDBRANCH   3  22
TORSDOF 7
ENDMDL
MODEL 5
REMARK VINA RESULT:      -5.0     13.763     15.028
REMARK  7 active torsions:
REMARK  status: ('A' for Active; 'I' for Inactive)
REMARK    1  A    between atoms: C_2  and  C_3 
REMARK    2  A    between atoms: C_3  and  O_6 
REMARK    3  A    between atoms: C_3  and  C_4 
REMARK    4  A    between atoms: C_7  and  O_6 
REMARK    5  A    between atoms: C_9  and  C_10 
REMARK    6  A    between atoms: N_15  and  C_14 
REMARK    7  A    between atoms: N_20  and  C_19 
REMARK       I    between atoms: C_22  and  N_20 
ROOT
ATOM      1  C   LIG d   1      -2.777  74.990 117.100  0.00  0.00     0.161 C 
ATOM      2  C   LIG d   1      -3.564  74.969 115.937  0.00  0.00     0.016 C 
ATOM      3  C   LIG d   1      -4.435  76.020 115.567  0.00  0.00     0.038 C 
ATOM      4  C   LIG d   1      -4.465  77.238 116.264  0.00  0.00     0.028 C 
ATOM      5  C   LIG d   1      -4.062  77.108 117.729  0.00  0.00    -0.047 C 
ATOM      6  C   LIG d   1      -2.714  76.357 117.813  0.00  0.00     0.091 C 
ENDROOT
BRANCH   1   7
ATOM      7  O   LIG d   1      -1.449  74.519 116.800  0.00  0.00    -0.368 OA
BRANCH   7   8
ATOM      8  C   LIG d   1      -0.478  75.534 116.443  0.00  0.00     0.119 C 
BRANCH   8   9
ATOM      9  C   LIG d   1      -0.121  75.331 114.958  0.00  0.00     0.028 C 
ATOM     10  C   LIG d   1      -0.290  73.871 114.508  0.00  0.00     0.006 C 
ENDBRANCH   8   9
BRANCH   8  11
ATOM     11  C   LIG d   1       0.836  75.342 117.206  0.00  0.00     0.028 C 
ATOM     12  C   LIG d   1       0.684  74.428 118.433  0.00  0.00     0.006 C 
ENDBRANCH   8  11
ENDBRANCH   7   8
ENDBRANCH   1   7
BRANCH   6  13
ATOM     13  N   LIG d   1      -2.288  76.113 119.216  0.00  0.00    -0.311 N 
ATOM     14  C   LIG d   1      -1.435  76.899 119.871  0.00  0.00     0.210 C 
ATOM     15  C   LIG d   1      -1.115  76.456 121.302  0.00  0.00     0.109 C 
ATOM     16  O   LIG d   1      -0.938  77.939 119.413  0.00  0.00    -0.276 OA
ATOM     17  H   LIG d   1      -2.667  75.308 119.674  0.00  0.00     0.149 HD
ENDBRANCH   6  13
BRANCH   5  18
ATOM     18  N   LIG d   1      -4.004  78.468 118.297  0.00  0.00     0.381 N 
ATOM     19  H   LIG d   1      -3.056  78.705 118.510  0.00  0.00    -0.090 HD
ATOM     20  H   LIG d   1      -4.533  78.486 119.151  0.00  0.00    -0.090 HD
ATOM     21  H   LIG d   1      -4.382  79.124 117.650  0.00  0.00    -0.090 HD
ENDBRANCH   5  18
BRANCH   3  22
ATOM     22  C   LIG d   1      -5.318  75.843 114.513  0.00  0.00     0.382 C 
ATOM     23  O   LIG d   1      -6.458  76.364 114.555  0.00  0.00    -0.241 OA
ATOM     24  O   LIG d   1      -5.005  75.131 113.540  0.00  0.00    -0.241 OA
ENDBRANCH   3  22
TORSDOF 7
ENDMDL
MODEL 6
REMARK VINA RESULT:      -5.0     11.920     14.307
REMARK  7 active torsions:
REMARK  status: ('A' for Active; 'I' for Inactive)
REMARK    1  A    between atoms: C_2  and  C_3 
REMARK    2  A    between atoms: C_3  and  O_6 
REMARK    3  A    between atoms: C_3  and  C_4 
REMARK    4  A    between atoms: C_7  and  O_6 
REMARK    5  A    between atoms: C_9  and  C_10 
REMARK    6  A    between atoms: N_15  and  C_14 
REMARK    7  A    between atoms: N_20  and  C_19 
REMARK       I    between atoms: C_22  and  N_20 
ROOT
ATOM      1  C   LIG d   1      -5.846  77.382 117.543  0.00  0.00     0.161 C 
ATOM      2  C   LIG d   1      -4.973  77.164 116.465  0.00  0.00     0.016 C 
ATOM      3  C   LIG d   1      -5.309  76.379 115.338  0.00  0.00     0.038 C 
ATOM      4  C   LIG d   1      -6.605  75.879 115.143  0.00  0.00     0.028 C 
ATOM      5  C   LIG d   1      -7.368  75.650 116.443  0.00  0.00    -0.047 C 
ATOM      6  C   LIG d   1      -7.303  76.937 117.297  0.00  0.00     0.091 C 
ENDROOT
BRANCH   1   7
ATOM      7  O   LIG d   1      -5.806  78.769 117.932  0.00  0.00    -0.368 OA
BRANCH   7   8
ATOM      8  C   LIG d   1      -5.505  79.033 119.325  0.00  0.00     0.119 C 
BRANCH   8   9
ATOM      9  C   LIG d   1      -6.229  80.336 119.716  0.00  0.00     0.028 C 
ATOM     10  C   LIG d   1      -7.185  80.829 118.618  0.00  0.00     0.006 C 
ENDBRANCH   8   9
BRANCH   8  11
ATOM     11  C   LIG d   1      -4.015  79.319 119.529  0.00  0.00     0.028 C 
ATOM     12  C   LIG d   1      -3.259  78.133 120.148  0.00  0.00     0.006 C 
ENDBRANCH   8  11
ENDBRANCH   7   8
ENDBRANCH   1   7
BRANCH   6  13
ATOM     13  N   LIG d   1      -7.953  76.771 118.623  0.00  0.00    -0.311 N 
ATOM     14  C   LIG d   1      -9.020  77.469 119.009  0.00  0.00     0.210 C 
ATOM     15  C   LIG d   1      -9.520  77.157 120.423  0.00  0.00     0.109 C 
ATOM     16  O   LIG d   1      -9.618  78.294 118.302  0.00  0.00    -0.276 OA
ATOM     17  H   LIG d   1      -7.551  76.100 119.247  0.00  0.00     0.149 HD
ENDBRANCH   6  13
BRANCH   5  18
ATOM     18  N   LIG d   1      -8.746  75.260 116.089  0.00  0.00     0.381 N 
ATOM     19  H   LIG d   1      -8.727  74.547 115.387  0.00  0.00    -0.090 HD
ATOM     20  H   LIG d   1      -9.223  76.060 115.712  0.00  0.00    -0.090 HD
ATOM     21  H   LIG d   1      -9.226  74.929 116.897  0.00  0.00    -0.090 HD
ENDBRANCH   5  18
BRANCH   3  22
ATOM     22  C   LIG d   1      -4.331  76.053 114.411  0.00  0.00     0.382 C 
ATOM     23  O   LIG d   1      -3.373  75.315 114.743  0.00  0.00    -0.241 OA
ATOM     24  O   LIG d   1      -4.371  76.524 113.258  0.00  0.00    -0.241 OA
ENDBRANCH   3  22
TORSDOF 7
ENDMDL
MODEL 7
REMARK VINA RESULT:      -5.0     13.441     16.197
REMARK  7 active torsions:
REMARK  status: ('A' for Active; 'I' for Inactive)
REMARK    1  A    between atoms: C_2  and  C_3 
REMARK    2  A    between atoms: C_3  and  O_6 
REMARK    3  A    between atoms: C_3  and  C_4 
REMARK    4  A    between atoms: C_7  and  O_6 
REMARK    5  A    between atoms: C_9  and  C_10 
REMARK    6  A    between atoms: N_15  and  C_14 
REMARK    7  A    between atoms: N_20  and  C_19 
REMARK       I    between atoms: C_22  and  N_20 
ROOT
ATOM      1  C   LIG d   1      -2.198  75.408 118.426  0.00  0.00     0.161 C 
ATOM      2  C   LIG d   1      -0.939  75.400 119.049  0.00  0.00     0.016 C 
ATOM      3  C   LIG d   1       0.252  75.020 118.390  0.00  0.00     0.038 C 
ATOM      4  C   LIG d   1       0.288  74.764 117.011  0.00  0.00     0.028 C 
ATOM      5  C   LIG d   1      -1.042  74.270 116.452  0.00  0.00    -0.047 C 
ATOM      6  C   LIG d   1      -2.163  75.240 116.893  0.00  0.00     0.091 C 
ENDROOT
BRANCH   1   7
ATOM      7  O   LIG d   1      -2.912  76.610 118.782  0.00  0.00    -0.368 OA
BRANCH   7   8
ATOM      8  C   LIG d   1      -2.680  77.762 117.935  0.00  0.00     0.119 C 
BRANCH   8   9
ATOM      9  C   LIG d   1      -2.078  78.872 118.819  0.00  0.00     0.028 C 
ATOM     10  C   LIG d   1      -2.357  78.648 120.314  0.00  0.00     0.006 C 
ENDBRANCH   8   9
BRANCH   8  11
ATOM     11  C   LIG d   1      -3.997  78.337 117.404  0.00  0.00     0.028 C 
ATOM     12  C   LIG d   1      -5.232  77.634 117.989  0.00  0.00     0.006 C 
ENDBRANCH   8  11
ENDBRANCH   7   8
ENDBRANCH   1   7
BRANCH   6  13
ATOM     13  N   LIG d   1      -3.509  74.785 116.459  0.00  0.00    -0.311 N 
ATOM     14  C   LIG d   1      -4.088  75.182 115.328  0.00  0.00     0.210 C 
ATOM     15  C   LIG d   1      -5.487  74.608 115.080  0.00  0.00     0.109 C 
ATOM     16  O   LIG d   1      -3.563  75.931 114.489  0.00  0.00    -0.276 OA
ATOM     17  H   LIG d   1      -3.994  74.151 117.065  0.00  0.00     0.149 HD
ENDBRANCH   6  13
BRANCH   5  18
ATOM     18  N   LIG d   1      -0.903  74.176 114.987  0.00  0.00     0.381 N 
ATOM     19  H   LIG d   1      -1.351  74.958 114.553  0.00  0.00    -0.090 HD
ATOM     20  H   LIG d   1      -1.356  73.337 114.670  0.00  0.00    -0.090 HD
ATOM     21  H   LIG d   1       0.062  74.156 114.737  0.00  0.00    -0.090 HD
ENDBRANCH   5  18
BRANCH   3  22
ATOM     22  C   LIG d   1       1.419  74.853 119.121  0.00  0.00     0.382 C 
ATOM     23  O   LIG d   1       2.530  75.105 118.596  0.00  0.00    -0.241 OA
ATOM     24  O   LIG d   1       1.377  74.410 120.285  0.00  0.00    -0.241 OA
ENDBRANCH   3  22
TORSDOF 7
ENDMDL
MODEL 8
REMARK VINA RESULT:      -4.9      2.579      5.318
REMARK  7 active torsions:
REMARK  status: ('A' for Active; 'I' for Inactive)
REMARK    1  A    between atoms: C_2  and  C_3 
REMARK    2  A    between atoms: C_3  and  O_6 
REMARK    3  A    between atoms: C_3  and  C_4 
REMARK    4  A    between atoms: C_7  and  O_6 
REMARK    5  A    between atoms: C_9  and  C_10 
REMARK    6  A    between atoms: N_15  and  C_14 
REMARK    7  A    between atoms: N_20  and  C_19 
REMARK       I    between atoms: C_22  and  N_20 
ROOT
ATOM      1  C   LIG d   1      -5.604  93.219 118.080  0.00  0.00     0.161 C 
ATOM      2  C   LIG d   1      -6.303  92.116 117.562  0.00  0.00     0.016 C 
ATOM      3  C   LIG d   1      -5.751  90.817 117.472  0.00  0.00     0.038 C 
ATOM      4  C   LIG d   1      -4.506  90.500 118.036  0.00  0.00     0.028 C 
ATOM      5  C   LIG d   1      -3.557  91.690 118.117  0.00  0.00    -0.047 C 
ATOM      6  C   LIG d   1      -4.286  92.868 118.802  0.00  0.00     0.091 C 
ENDROOT
BRANCH   1   7
ATOM      7  O   LIG d   1      -6.465  93.979 118.950  0.00  0.00    -0.368 OA
BRANCH   7   8
ATOM      8  C   LIG d   1      -6.836  95.300 118.485  0.00  0.00     0.119 C 
BRANCH   8   9
ATOM      9  C   LIG d   1      -6.341  96.316 119.532  0.00  0.00     0.028 C 
ATOM     10  C   LIG d   1      -6.002  95.653 120.878  0.00  0.00     0.006 C 
ENDBRANCH   8   9
BRANCH   8  11
ATOM     11  C   LIG d   1      -8.358  95.469 118.443  0.00  0.00     0.028 C 
ATOM     12  C   LIG d   1      -9.081  94.622 119.502  0.00  0.00     0.006 C 
ENDBRANCH   8  11
ENDBRANCH   7   8
ENDBRANCH   1   7
BRANCH   6  13
ATOM     13  N   LIG d   1      -3.456  94.100 118.846  0.00  0.00    -0.311 N 
ATOM     14  C   LIG d   1      -2.695  94.434 119.887  0.00  0.00     0.210 C 
ATOM     15  C   LIG d   1      -1.935  95.756 119.734  0.00  0.00     0.109 C 
ATOM     16  O   LIG d   1      -2.551  93.746 120.909  0.00  0.00    -0.276 OA
ATOM     17  H   LIG d   1      -3.488  94.701 118.046  0.00  0.00     0.149 HD
ENDBRANCH   6  13
BRANCH   5  18
ATOM     18  N   LIG d   1      -2.353  91.251 118.849  0.00  0.00     0.381 N 
ATOM     19  H   LIG d   1      -2.603  90.977 119.778  0.00  0.00    -0.090 HD
ATOM     20  H   LIG d   1      -1.711  92.021 118.909  0.00  0.00    -0.090 HD
ATOM     21  H   LIG d   1      -1.925  90.487 118.374  0.00  0.00    -0.090 HD
ENDBRANCH   5  18
BRANCH   3  22
ATOM     22  C   LIG d   1      -6.429  89.829 116.775  0.00  0.00     0.382 C 
ATOM     23  O   LIG d   1      -7.664  89.681 116.941  0.00  0.00    -0.241 OA
ATOM     24  O   LIG d   1      -5.815  89.055 116.017  0.00  0.00    -0.241 OA
ENDBRANCH   3  22
TORSDOF 7
ENDMDL
MODEL 9
REMARK VINA RESULT:      -4.9      2.904      4.537
REMARK  7 active torsions:
REMARK  status: ('A' for Active; 'I' for Inactive)
REMARK    1  A    between atoms: C_2  and  C_3 
REMARK    2  A    between atoms: C_3  and  O_6 
REMARK    3  A    between atoms: C_3  and  C_4 
REMARK    4  A    between atoms: C_7  and  O_6 
REMARK    5  A    between atoms: C_9  and  C_10 
REMARK    6  A    between atoms: N_15  and  C_14 
REMARK    7  A    between atoms: N_20  and  C_19 
REMARK       I    between atoms: C_22  and  N_20 
ROOT
ATOM      1  C   LIG d   1      -5.385  92.981 118.486  0.00  0.00     0.161 C 
ATOM      2  C   LIG d   1      -6.671  93.522 118.322  0.00  0.00     0.016 C 
ATOM      3  C   LIG d   1      -7.062  94.773 118.850  0.00  0.00     0.038 C 
ATOM      4  C   LIG d   1      -6.142  95.644 119.454  0.00  0.00     0.028 C 
ATOM      5  C   LIG d   1      -4.955  94.926 120.087  0.00  0.00    -0.047 C 
ATOM      6  C   LIG d   1      -4.336  93.965 119.046  0.00  0.00     0.091 C 
ENDROOT
BRANCH   1   7
ATOM      7  O   LIG d   1      -4.928  92.418 117.240  0.00  0.00    -0.368 OA
BRANCH   7   8
ATOM      8  C   LIG d   1      -5.248  91.023 117.016  0.00  0.00     0.119 C 
BRANCH   8   9
ATOM      9  C   LIG d   1      -3.948  90.215 117.197  0.00  0.00     0.028 C 
ATOM     10  C   LIG d   1      -3.799  89.654 118.621  0.00  0.00     0.006 C 
ENDBRANCH   8   9
BRANCH   8  11
ATOM     11  C   LIG d   1      -5.681  90.777 115.568  0.00  0.00     0.028 C 
ATOM     12  C   LIG d   1      -6.401  91.984 114.947  0.00  0.00     0.006 C 
ENDBRANCH   8  11
ENDBRANCH   7   8
ENDBRANCH   1   7
BRANCH   6  13
ATOM     13  N   LIG d   1      -3.221  93.161 119.610  0.00  0.00    -0.311 N 
ATOM     14  C   LIG d   1      -2.066  92.965 118.976  0.00  0.00     0.210 C 
ATOM     15  C   LIG d   1      -1.058  92.088 119.726  0.00  0.00     0.109 C 
ATOM     16  O   LIG d   1      -1.768  93.460 117.879  0.00  0.00    -0.276 OA
ATOM     17  H   LIG d   1      -3.365  92.748 120.511  0.00  0.00     0.149 HD
ENDBRANCH   6  13
BRANCH   5  18
ATOM     18  N   LIG d   1      -4.010  95.957 120.556  0.00  0.00     0.381 N 
ATOM     19  H   LIG d   1      -3.961  96.701 119.889  0.00  0.00    -0.090 HD
ATOM     20  H   LIG d   1      -3.096  95.546 120.639  0.00  0.00    -0.090 HD
ATOM     21  H   LIG d   1      -4.304  96.312 121.440  0.00  0.00    -0.090 HD
ENDBRANCH   5  18
BRANCH   3  22
ATOM     22  C   LIG d   1      -8.397  95.148 118.812  0.00  0.00     0.382 C 
ATOM     23  O   LIG d   1      -9.295  94.284 118.954  0.00  0.00    -0.241 OA
ATOM     24  O   LIG d   1      -8.714  96.333 118.593  0.00  0.00    -0.241 OA
ENDBRANCH   3  22
TORSDOF 7
ENDMDL
