MODEL 1
REMARK VINA RESULT:      -5.2      0.000      0.000
REMARK  7 active torsions:
REMARK  status: ('A' for Active; 'I' for Inactive)
REMARK    1  A    between atoms: C_2  and  C_3 
REMARK    2  A    between atoms: C_3  and  O_6 
REMARK    3  A    between atoms: C_3  and  C_4 
REMARK    4  A    between atoms: C_7  and  O_6 
REMARK    5  A    between atoms: C_9  and  C_10 
REMARK    6  A    between atoms: N_15  and  C_14 
REMARK    7  A    between atoms: N_20  and  C_19 
REMARK       I    between atoms: C_22  and  N_20 
ROOT
ATOM      1  C   LIG d   1      -5.576  77.260 116.341  0.00  0.00     0.161 C 
ATOM      2  C   LIG d   1      -6.888  76.884 116.675  0.00  0.00     0.016 C 
ATOM      3  C   LIG d   1      -7.714  77.631 117.546  0.00  0.00     0.038 C 
ATOM      4  C   LIG d   1      -7.335  78.894 118.026  0.00  0.00     0.028 C 
ATOM      5  C   LIG d   1      -5.824  79.078 118.120  0.00  0.00    -0.047 C 
ATOM      6  C   LIG d   1      -5.186  78.691 116.767  0.00  0.00     0.091 C 
ENDROOT
BRANCH   1   7
ATOM      7  O   LIG d   1      -5.362  77.082 114.927  0.00  0.00    -0.368 OA
BRANCH   7   8
ATOM      8  C   LIG d   1      -4.520  75.966 114.546  0.00  0.00     0.119 C 
BRANCH   8   9
ATOM      9  C   LIG d   1      -5.443  74.846 114.027  0.00  0.00     0.028 C 
ATOM     10  C   LIG d   1      -5.629  73.717 115.055  0.00  0.00     0.006 C 
ENDBRANCH   8   9
BRANCH   8  11
ATOM     11  C   LIG d   1      -3.801  75.370 115.759  0.00  0.00     0.028 C 
ATOM     12  C   LIG d   1      -2.273  75.505 115.672  0.00  0.00     0.006 C 
ENDBRANCH   8  11
ENDBRANCH   7   8
ENDBRANCH   1   7
BRANCH   6  13
ATOM     13  N   LIG d   1      -3.702  78.762 116.799  0.00  0.00    -0.311 N 
ATOM     14  C   LIG d   1      -2.978  79.404 115.884  0.00  0.00     0.210 C 
ATOM     15  C   LIG d   1      -1.462  79.337 116.094  0.00  0.00     0.109 C 
ATOM     16  O   LIG d   1      -3.449  80.051 114.936  0.00  0.00    -0.276 OA
ATOM     17  H   LIG d   1      -3.239  78.291 117.552  0.00  0.00     0.149 HD
ENDBRANCH   6  13
BRANCH   5  18
ATOM     18  N   LIG d   1      -5.569  80.480 118.501  0.00  0.00     0.381 N 
ATOM     19  H   LIG d   1      -4.722  80.538 119.030  0.00  0.00    -0.090 HD
ATOM     20  H   LIG d   1      -6.325  80.802 119.079  0.00  0.00    -0.090 HD
ATOM     21  H   LIG d   1      -5.499  81.047 117.685  0.00  0.00    -0.090 HD
ENDBRANCH   5  18
BRANCH   3  22
ATOM     22  C   LIG d   1      -8.919  77.097 117.977  0.00  0.00     0.382 C 
ATOM     23  O   LIG d   1      -9.099  75.856 117.951  0.00  0.00    -0.241 OA
ATOM     24  O   LIG d   1      -9.843  77.844 118.350  0.00  0.00    -0.241 OA
ENDBRANCH   3  22
TORSDOF 7
ENDMDL
MODEL 2
REMARK VINA RESULT:      -5.1     14.214     16.460
REMARK  7 active torsions:
REMARK  status: ('A' for Active; 'I' for Inactive)
REMARK    1  A    between atoms: C_2  and  C_3 
REMARK    2  A    between atoms: C_3  and  O_6 
REMARK    3  A    between atoms: C_3  and  C_4 
REMARK    4  A    between atoms: C_7  and  O_6 
REMARK    5  A    between atoms: C_9  and  C_10 
REMARK    6  A    between atoms: N_15  and  C_14 
REMARK    7  A    between atoms: N_20  and  C_19 
REMARK       I    between atoms: C_22  and  N_20 
ROOT
ATOM      1  C   LIG d   1      -6.244  93.360 118.506  0.00  0.00     0.161 C 
ATOM      2  C   LIG d   1      -7.013  92.390 117.843  0.00  0.00     0.016 C 
ATOM      3  C   LIG d   1      -6.452  91.288 117.156  0.00  0.00     0.038 C 
ATOM      4  C   LIG d   1      -5.081  90.997 117.215  0.00  0.00     0.028 C 
ATOM      5  C   LIG d   1      -4.211  92.227 117.451  0.00  0.00    -0.047 C 
ATOM      6  C   LIG d   1      -4.753  92.999 118.676  0.00  0.00     0.091 C 
ENDROOT
BRANCH   1   7
ATOM      7  O   LIG d   1      -6.835  93.661 119.786  0.00  0.00    -0.368 OA
BRANCH   7   8
ATOM      8  C   LIG d   1      -7.517  94.935 119.889  0.00  0.00     0.119 C 
BRANCH   8   9
ATOM      9  C   LIG d   1      -9.026  94.666 119.728  0.00  0.00     0.028 C 
ATOM     10  C   LIG d   1      -9.580  93.751 120.834  0.00  0.00     0.006 C 
ENDBRANCH   8   9
BRANCH   8  11
ATOM     11  C   LIG d   1      -7.145  95.862 118.729  0.00  0.00     0.028 C 
ATOM     12  C   LIG d   1      -8.341  96.673 118.206  0.00  0.00     0.006 C 
ENDBRANCH   8  11
ENDBRANCH   7   8
ENDBRANCH   1   7
BRANCH   6  13
ATOM     13  N   LIG d   1      -4.010  94.261 118.925  0.00  0.00    -0.311 N 
ATOM     14  C   LIG d   1      -2.979  94.352 119.764  0.00  0.00     0.210 C 
ATOM     15  C   LIG d   1      -2.368  95.751 119.889  0.00  0.00     0.109 C 
ATOM     16  O   LIG d   1      -2.493  93.400 120.392  0.00  0.00    -0.276 OA
ATOM     17  H   LIG d   1      -4.318  95.077 118.433  0.00  0.00     0.149 HD
ENDBRANCH   6  13
BRANCH   5  18
ATOM     18  N   LIG d   1      -2.822  91.763 117.629  0.00  0.00     0.381 N 
ATOM     19  H   LIG d   1      -2.733  91.286 118.504  0.00  0.00    -0.090 HD
ATOM     20  H   LIG d   1      -2.211  92.561 117.641  0.00  0.00    -0.090 HD
ATOM     21  H   LIG d   1      -2.568  91.153 116.883  0.00  0.00    -0.090 HD
ENDBRANCH   5  18
BRANCH   3  22
ATOM     22  C   LIG d   1      -7.262  90.486 116.367  0.00  0.00     0.382 C 
ATOM     23  O   LIG d   1      -6.919  90.213 115.191  0.00  0.00    -0.241 OA
ATOM     24  O   LIG d   1      -8.352  90.068 116.800  0.00  0.00    -0.241 OA
ENDBRANCH   3  22
TORSDOF 7
ENDMDL
MODEL 3
REMARK VINA RESULT:      -5.0      3.444      5.962
REMARK  7 active torsions:
REMARK  status: ('A' for Active; 'I' for Inactive)
REMARK    1  A    between atoms: C_2  and  C_3 
REMARK    2  A    between atoms: C_3  and  O_6 
REMARK    3  A    between atoms: C_3  and  C_4 
REMARK    4  A    between atoms: C_7  and  O_6 
REMARK    5  A    between atoms: C_9  and  C_10 
REMARK    6  A    between atoms: N_15  and  C_14 
REMARK    7  A    between atoms: N_20  and  C_19 
REMARK       I    between atoms: C_22  and  N_20 
ROOT
ATOM      1  C   LIG d   1      -2.718  77.035 114.831  0.00  0.00     0.161 C 
ATOM      2  C   LIG d   1      -2.889  78.243 114.135  0.00  0.00     0.016 C 
ATOM      3  C   LIG d   1      -1.844  79.168 113.913  0.00  0.00     0.038 C 
ATOM      4  C   LIG d   1      -0.513  78.877 114.245  0.00  0.00     0.028 C 
ATOM      5  C   LIG d   1      -0.378  77.891 115.400  0.00  0.00    -0.047 C 
ATOM      6  C   LIG d   1      -1.249  76.648 115.104  0.00  0.00     0.091 C 
ENDROOT
BRANCH   1   7
ATOM      7  O   LIG d   1      -3.396  75.970 114.137  0.00  0.00    -0.368 OA
BRANCH   7   8
ATOM      8  C   LIG d   1      -4.751  75.689 114.568  0.00  0.00     0.119 C 
BRANCH   8   9
ATOM      9  C   LIG d   1      -4.732  75.567 116.104  0.00  0.00     0.028 C 
ATOM     10  C   LIG d   1      -5.659  76.587 116.785  0.00  0.00     0.006 C 
ENDBRANCH   8   9
BRANCH   8  11
ATOM     11  C   LIG d   1      -5.226  74.325 114.058  0.00  0.00     0.028 C 
ATOM     12  C   LIG d   1      -5.940  73.500 115.141  0.00  0.00     0.006 C 
ENDBRANCH   8  11
ENDBRANCH   7   8
ENDBRANCH   1   7
BRANCH   6  13
ATOM     13  N   LIG d   1      -1.242  75.670 116.223  0.00  0.00    -0.311 N 
ATOM     14  C   LIG d   1      -0.948  74.381 116.067  0.00  0.00     0.210 C 
ATOM     15  C   LIG d   1      -1.018  73.543 117.348  0.00  0.00     0.109 C 
ATOM     16  O   LIG d   1      -0.604  73.858 114.997  0.00  0.00    -0.276 OA
ATOM     17  H   LIG d   1      -1.479  76.016 117.132  0.00  0.00     0.149 HD
ENDBRANCH   6  13
BRANCH   5  18
ATOM     18  N   LIG d   1       1.054  77.570 115.549  0.00  0.00     0.381 N 
ATOM     19  H   LIG d   1       1.169  76.839 116.222  0.00  0.00    -0.090 HD
ATOM     20  H   LIG d   1       1.536  78.386 115.884  0.00  0.00    -0.090 HD
ATOM     21  H   LIG d   1       1.433  77.288 114.672  0.00  0.00    -0.090 HD
ENDBRANCH   5  18
BRANCH   3  22
ATOM     22  C   LIG d   1      -2.133  80.419 113.389  0.00  0.00     0.382 C 
ATOM     23  O   LIG d   1      -1.201  81.190 113.055  0.00  0.00    -0.241 OA
ATOM     24  O   LIG d   1      -3.313  80.804 113.287  0.00  0.00    -0.241 OA
ENDBRANCH   3  22
TORSDOF 7
ENDMDL
MODEL 4
REMARK VINA RESULT:      -4.9     12.630     14.684
REMARK  7 active torsions:
REMARK  status: ('A' for Active; 'I' for Inactive)
REMARK    1  A    between atoms: C_2  and  C_3 
REMARK    2  A    between atoms: C_3  and  O_6 
REMARK    3  A    between atoms: C_3  and  C_4 
REMARK    4  A    between atoms: C_7  and  O_6 
REMARK    5  A    between atoms: C_9  and  C_10 
REMARK    6  A    between atoms: N_15  and  C_14 
REMARK    7  A    between atoms: N_20  and  C_19 
REMARK       I    between atoms: C_22  and  N_20 
ROOT
ATOM      1  C   LIG d   1      -4.312  91.407 118.057  0.00  0.00     0.161 C 
ATOM      2  C   LIG d   1      -5.188  90.737 117.186  0.00  0.00     0.016 C 
ATOM      3  C   LIG d   1      -6.409  91.289 116.734  0.00  0.00     0.038 C 
ATOM      4  C   LIG d   1      -6.767  92.618 117.005  0.00  0.00     0.028 C 
ATOM      5  C   LIG d   1      -6.156  93.159 118.294  0.00  0.00    -0.047 C 
ATOM      6  C   LIG d   1      -4.632  92.900 118.274  0.00  0.00     0.091 C 
ENDROOT
BRANCH   1   7
ATOM      7  O   LIG d   1      -2.954  91.247 117.601  0.00  0.00    -0.368 OA
BRANCH   7   8
ATOM      8  C   LIG d   1      -2.040  90.613 118.531  0.00  0.00     0.119 C 
BRANCH   8   9
ATOM      9  C   LIG d   1      -0.631  91.168 118.246  0.00  0.00     0.028 C 
ATOM     10  C   LIG d   1       0.140  90.315 117.225  0.00  0.00     0.006 C 
ENDBRANCH   8   9
BRANCH   8  11
ATOM     11  C   LIG d   1      -1.942  89.106 118.275  0.00  0.00     0.028 C 
ATOM     12  C   LIG d   1      -2.565  88.269 119.404  0.00  0.00     0.006 C 
ENDBRANCH   8  11
ENDBRANCH   7   8
ENDBRANCH   1   7
BRANCH   6  13
ATOM     13  N   LIG d   1      -3.969  93.324 119.535  0.00  0.00    -0.311 N 
ATOM     14  C   LIG d   1      -2.869  94.073 119.568  0.00  0.00     0.210 C 
ATOM     15  C   LIG d   1      -2.337  94.379 120.972  0.00  0.00     0.109 C 
ATOM     16  O   LIG d   1      -2.301  94.541 118.570  0.00  0.00    -0.276 OA
ATOM     17  H   LIG d   1      -4.382  93.015 120.393  0.00  0.00     0.149 HD
ENDBRANCH   6  13
BRANCH   5  18
ATOM     18  N   LIG d   1      -6.498  94.591 118.382  0.00  0.00     0.381 N 
ATOM     19  H   LIG d   1      -6.335  94.922 119.312  0.00  0.00    -0.090 HD
ATOM     20  H   LIG d   1      -7.475  94.706 118.173  0.00  0.00    -0.090 HD
ATOM     21  H   LIG d   1      -5.950  95.113 117.734  0.00  0.00    -0.090 HD
ENDBRANCH   5  18
BRANCH   3  22
ATOM     22  C   LIG d   1      -7.305  90.494 116.036  0.00  0.00     0.382 C 
ATOM     23  O   LIG d   1      -8.250  89.934 116.641  0.00  0.00    -0.241 OA
ATOM     24  O   LIG d   1      -7.155  90.296 114.815  0.00  0.00    -0.241 OA
ENDBRANCH   3  22
TORSDOF 7
ENDMDL
MODEL 5
REMARK VINA RESULT:      -4.7     14.786     17.367
REMARK  7 active torsions:
REMARK  status: ('A' for Active; 'I' for Inactive)
REMARK    1  A    between atoms: C_2  and  C_3 
REMARK    2  A    between atoms: C_3  and  O_6 
REMARK    3  A    between atoms: C_3  and  C_4 
REMARK    4  A    between atoms: C_7  and  O_6 
REMARK    5  A    between atoms: C_9  and  C_10 
REMARK    6  A    between atoms: N_15  and  C_14 
REMARK    7  A    between atoms: N_20  and  C_19 
REMARK       I    between atoms: C_22  and  N_20 
ROOT
ATOM      1  C   LIG d   1     -16.348  64.698 116.380  0.00  0.00     0.161 C 
ATOM      2  C   LIG d   1     -15.627  65.469 115.454  0.00  0.00     0.016 C 
ATOM      3  C   LIG d   1     -15.650  66.882 115.432  0.00  0.00     0.038 C 
ATOM      4  C   LIG d   1     -16.282  67.629 116.438  0.00  0.00     0.028 C 
ATOM      5  C   LIG d   1     -17.440  66.892 117.102  0.00  0.00    -0.047 C 
ATOM      6  C   LIG d   1     -16.954  65.496 117.554  0.00  0.00     0.091 C 
ENDROOT
BRANCH   1   7
ATOM      7  O   LIG d   1     -15.518  63.629 116.877  0.00  0.00    -0.368 OA
BRANCH   7   8
ATOM      8  C   LIG d   1     -15.835  62.300 116.394  0.00  0.00     0.119 C 
BRANCH   8   9
ATOM      9  C   LIG d   1     -17.150  62.397 115.597  0.00  0.00     0.028 C 
ATOM     10  C   LIG d   1     -17.266  61.305 114.520  0.00  0.00     0.006 C 
ENDBRANCH   8   9
BRANCH   8  11
ATOM     11  C   LIG d   1     -16.133  61.343 117.552  0.00  0.00     0.028 C 
ATOM     12  C   LIG d   1     -15.082  61.416 118.671  0.00  0.00     0.006 C 
ENDBRANCH   8  11
ENDBRANCH   7   8
ENDBRANCH   1   7
BRANCH   6  13
ATOM     13  N   LIG d   1     -18.047  64.676 118.138  0.00  0.00    -0.311 N 
ATOM     14  C   LIG d   1     -17.956  64.067 119.319  0.00  0.00     0.210 C 
ATOM     15  C   LIG d   1     -19.191  63.256 119.725  0.00  0.00     0.109 C 
ATOM     16  O   LIG d   1     -16.983  64.148 120.083  0.00  0.00    -0.276 OA
ATOM     17  H   LIG d   1     -18.886  64.583 117.599  0.00  0.00     0.149 HD
ENDBRANCH   6  13
BRANCH   5  18
ATOM     18  N   LIG d   1     -17.917  67.727 118.220  0.00  0.00     0.381 N 
ATOM     19  H   LIG d   1     -17.286  68.489 118.368  0.00  0.00    -0.090 HD
ATOM     20  H   LIG d   1     -17.940  67.170 119.056  0.00  0.00    -0.090 HD
ATOM     21  H   LIG d   1     -18.829  68.076 118.020  0.00  0.00    -0.090 HD
ENDBRANCH   5  18
BRANCH   3  22
ATOM     22  C   LIG d   1     -15.070  67.563 114.373  0.00  0.00     0.382 C 
ATOM     23  O   LIG d   1     -14.730  68.763 114.510  0.00  0.00    -0.241 OA
ATOM     24  O   LIG d   1     -14.922  67.006 113.269  0.00  0.00    -0.241 OA
ENDBRANCH   3  22
TORSDOF 7
ENDMDL
MODEL 6
REMARK VINA RESULT:      -4.6     14.866     17.435
REMARK  7 active torsions:
REMARK  status: ('A' for Active; 'I' for Inactive)
REMARK    1  A    between atoms: C_2  and  C_3 
REMARK    2  A    between atoms: C_3  and  O_6 
REMARK    3  A    between atoms: C_3  and  C_4 
REMARK    4  A    between atoms: C_7  and  O_6 
REMARK    5  A    between atoms: C_9  and  C_10 
REMARK    6  A    between atoms: N_15  and  C_14 
REMARK    7  A    between atoms: N_20  and  C_19 
REMARK       I    between atoms: C_22  and  N_20 
ROOT
ATOM      1  C   LIG d   1     -16.335  64.405 115.958  0.00  0.00     0.161 C 
ATOM      2  C   LIG d   1     -15.998  65.404 115.031  0.00  0.00     0.016 C 
ATOM      3  C   LIG d   1     -15.251  66.557 115.366  0.00  0.00     0.038 C 
ATOM      4  C   LIG d   1     -14.658  66.715 116.628  0.00  0.00     0.028 C 
ATOM      5  C   LIG d   1     -15.395  65.976 117.740  0.00  0.00    -0.047 C 
ATOM      6  C   LIG d   1     -15.603  64.505 117.313  0.00  0.00     0.091 C 
ENDROOT
BRANCH   1   7
ATOM      7  O   LIG d   1     -16.128  63.104 115.372  0.00  0.00    -0.368 OA
BRANCH   7   8
ATOM      8  C   LIG d   1     -17.324  62.370 115.012  0.00  0.00     0.119 C 
BRANCH   8   9
ATOM      9  C   LIG d   1     -17.103  60.899 115.414  0.00  0.00     0.028 C 
ATOM     10  C   LIG d   1     -17.624  60.593 116.829  0.00  0.00     0.006 C 
ENDBRANCH   8   9
BRANCH   8  11
ATOM     11  C   LIG d   1     -17.529  62.349 113.494  0.00  0.00     0.028 C 
ATOM     12  C   LIG d   1     -18.816  63.065 113.056  0.00  0.00     0.006 C 
ENDBRANCH   8  11
ENDBRANCH   7   8
ENDBRANCH   1   7
BRANCH   6  13
ATOM     13  N   LIG d   1     -16.391  63.732 118.308  0.00  0.00    -0.311 N 
ATOM     14  C   LIG d   1     -15.836  62.987 119.263  0.00  0.00     0.210 C 
ATOM     15  C   LIG d   1     -16.829  62.256 120.171  0.00  0.00     0.109 C 
ATOM     16  O   LIG d   1     -14.616  62.887 119.463  0.00  0.00    -0.276 OA
ATOM     17  H   LIG d   1     -17.388  63.781 118.238  0.00  0.00     0.149 HD
ENDBRANCH   6  13
BRANCH   5  18
ATOM     18  N   LIG d   1     -14.595  66.113 118.972  0.00  0.00     0.381 N 
ATOM     19  H   LIG d   1     -15.139  66.561 119.681  0.00  0.00    -0.090 HD
ATOM     20  H   LIG d   1     -13.794  66.689 118.777  0.00  0.00    -0.090 HD
ATOM     21  H   LIG d   1     -14.299  65.215 119.287  0.00  0.00    -0.090 HD
ENDBRANCH   5  18
BRANCH   3  22
ATOM     22  C   LIG d   1     -15.125  67.586 114.446  0.00  0.00     0.382 C 
ATOM     23  O   LIG d   1     -14.991  68.769 114.842  0.00  0.00    -0.241 OA
ATOM     24  O   LIG d   1     -15.187  67.352 113.224  0.00  0.00    -0.241 OA
ENDBRANCH   3  22
TORSDOF 7
ENDMDL
MODEL 7
REMARK VINA RESULT:      -4.5      3.308      5.038
REMARK  7 active torsions:
REMARK  status: ('A' for Active; 'I' for Inactive)
REMARK    1  A    between atoms: C_2  and  C_3 
REMARK    2  A    between atoms: C_3  and  O_6 
REMARK    3  A    between atoms: C_3  and  C_4 
REMARK    4  A    between atoms: C_7  and  O_6 
REMARK    5  A    between atoms: C_9  and  C_10 
REMARK    6  A    between atoms: N_15  and  C_14 
REMARK    7  A    between atoms: N_20  and  C_19 
REMARK       I    between atoms: C_22  and  N_20 
ROOT
ATOM      1  C   LIG d   1      -1.836  75.700 115.402  0.00  0.00     0.161 C 
ATOM      2  C   LIG d   1      -1.914  74.689 116.374  0.00  0.00     0.016 C 
ATOM      3  C   LIG d   1      -1.497  74.864 117.714  0.00  0.00     0.038 C 
ATOM      4  C   LIG d   1      -1.113  76.118 118.213  0.00  0.00     0.028 C 
ATOM      5  C   LIG d   1      -0.541  77.045 117.146  0.00  0.00    -0.047 C 
ATOM      6  C   LIG d   1      -1.524  77.106 115.955  0.00  0.00     0.091 C 
ENDROOT
BRANCH   1   7
ATOM      7  O   LIG d   1      -3.051  75.725 114.626  0.00  0.00    -0.368 OA
BRANCH   7   8
ATOM      8  C   LIG d   1      -4.258  75.322 115.318  0.00  0.00     0.119 C 
BRANCH   8   9
ATOM      9  C   LIG d   1      -5.075  74.444 114.350  0.00  0.00     0.028 C 
ATOM     10  C   LIG d   1      -5.831  73.318 115.076  0.00  0.00     0.006 C 
ENDBRANCH   8   9
BRANCH   8  11
ATOM     11  C   LIG d   1      -5.152  76.526 115.625  0.00  0.00     0.028 C 
ATOM     12  C   LIG d   1      -5.355  76.749 117.133  0.00  0.00     0.006 C 
ENDBRANCH   8  11
ENDBRANCH   7   8
ENDBRANCH   1   7
BRANCH   6  13
ATOM     13  N   LIG d   1      -1.002  77.926 114.830  0.00  0.00    -0.311 N 
ATOM     14  C   LIG d   1      -1.271  79.221 114.680  0.00  0.00     0.210 C 
ATOM     15  C   LIG d   1      -0.649  79.872 113.441  0.00  0.00     0.109 C 
ATOM     16  O   LIG d   1      -1.940  79.901 115.473  0.00  0.00    -0.276 OA
ATOM     17  H   LIG d   1      -0.424  77.461 114.157  0.00  0.00     0.149 HD
ENDBRANCH   6  13
BRANCH   5  18
ATOM     18  N   LIG d   1      -0.311  78.360 117.774  0.00  0.00     0.381 N 
ATOM     19  H   LIG d   1       0.522  78.330 118.327  0.00  0.00    -0.090 HD
ATOM     20  H   LIG d   1      -1.085  78.570 118.380  0.00  0.00    -0.090 HD
ATOM     21  H   LIG d   1      -0.228  79.063 117.073  0.00  0.00    -0.090 HD
ENDBRANCH   5  18
BRANCH   3  22
ATOM     22  C   LIG d   1      -1.425  73.768 118.560  0.00  0.00     0.382 C 
ATOM     23  O   LIG d   1      -1.243  73.937 119.790  0.00  0.00    -0.241 OA
ATOM     24  O   LIG d   1      -1.494  72.612 118.103  0.00  0.00    -0.241 OA
ENDBRANCH   3  22
TORSDOF 7
ENDMDL
MODEL 8
REMARK VINA RESULT:      -4.5     14.739     17.391
REMARK  7 active torsions:
REMARK  status: ('A' for Active; 'I' for Inactive)
REMARK    1  A    between atoms: C_2  and  C_3 
REMARK    2  A    between atoms: C_3  and  O_6 
REMARK    3  A    between atoms: C_3  and  C_4 
REMARK    4  A    between atoms: C_7  and  O_6 
REMARK    5  A    between atoms: C_9  and  C_10 
REMARK    6  A    between atoms: N_15  and  C_14 
REMARK    7  A    between atoms: N_20  and  C_19 
REMARK       I    between atoms: C_22  and  N_20 
ROOT
ATOM      1  C   LIG d   1     -15.831  64.978 116.866  0.00  0.00     0.161 C 
ATOM      2  C   LIG d   1     -15.524  66.192 116.229  0.00  0.00     0.016 C 
ATOM      3  C   LIG d   1     -15.630  66.387 114.833  0.00  0.00     0.038 C 
ATOM      4  C   LIG d   1     -16.198  65.420 113.990  0.00  0.00     0.028 C 
ATOM      5  C   LIG d   1     -16.052  63.996 114.517  0.00  0.00    -0.047 C 
ATOM      6  C   LIG d   1     -16.558  63.947 115.977  0.00  0.00     0.091 C 
ENDROOT
BRANCH   1   7
ATOM      7  O   LIG d   1     -16.592  65.233 118.063  0.00  0.00    -0.368 OA
BRANCH   7   8
ATOM      8  C   LIG d   1     -16.022  66.191 118.989  0.00  0.00     0.119 C 
BRANCH   8   9
ATOM      9  C   LIG d   1     -15.172  65.403 120.004  0.00  0.00     0.028 C 
ATOM     10  C   LIG d   1     -14.011  66.238 120.570  0.00  0.00     0.006 C 
ENDBRANCH   8   9
BRANCH   8  11
ATOM     11  C   LIG d   1     -17.110  66.879 119.818  0.00  0.00     0.028 C 
ATOM     12  C   LIG d   1     -18.256  67.432 118.956  0.00  0.00     0.006 C 
ENDBRANCH   8  11
ENDBRANCH   7   8
ENDBRANCH   1   7
BRANCH   6  13
ATOM     13  N   LIG d   1     -16.372  62.609 116.596  0.00  0.00    -0.311 N 
ATOM     14  C   LIG d   1     -17.383  61.842 117.000  0.00  0.00     0.210 C 
ATOM     15  C   LIG d   1     -16.971  60.508 117.630  0.00  0.00     0.109 C 
ATOM     16  O   LIG d   1     -18.583  62.125 116.867  0.00  0.00    -0.276 OA
ATOM     17  H   LIG d   1     -15.432  62.287 116.714  0.00  0.00     0.149 HD
ENDBRANCH   6  13
BRANCH   5  18
ATOM     18  N   LIG d   1     -16.807  63.107 113.614  0.00  0.00     0.381 N 
ATOM     19  H   LIG d   1     -17.480  62.585 114.137  0.00  0.00    -0.090 HD
ATOM     20  H   LIG d   1     -16.168  62.459 113.187  0.00  0.00    -0.090 HD
ATOM     21  H   LIG d   1     -17.265  63.644 112.911  0.00  0.00    -0.090 HD
ENDBRANCH   5  18
BRANCH   3  22
ATOM     22  C   LIG d   1     -15.127  67.545 114.260  0.00  0.00     0.382 C 
ATOM     23  O   LIG d   1     -15.029  68.592 114.946  0.00  0.00    -0.241 OA
ATOM     24  O   LIG d   1     -14.812  67.570 113.055  0.00  0.00    -0.241 OA
ENDBRANCH   3  22
TORSDOF 7
ENDMDL
MODEL 9
REMARK VINA RESULT:      -4.4      3.938      7.008
REMARK  7 active torsions:
REMARK  status: ('A' for Active; 'I' for Inactive)
REMARK    1  A    between atoms: C_2  and  C_3 
REMARK    2  A    between atoms: C_3  and  O_6 
REMARK    3  A    between atoms: C_3  and  C_4 
REMARK    4  A    between atoms: C_7  and  O_6 
REMARK    5  A    between atoms: C_9  and  C_10 
REMARK    6  A    between atoms: N_15  and  C_14 
REMARK    7  A    between atoms: N_20  and  C_19 
REMARK       I    between atoms: C_22  and  N_20 
ROOT
ATOM      1  C   LIG d   1      -1.912  74.279 116.118  0.00  0.00     0.161 C 
ATOM      2  C   LIG d   1      -0.568  74.361 115.718  0.00  0.00     0.016 C 
ATOM      3  C   LIG d   1       0.029  75.548 115.235  0.00  0.00     0.038 C 
ATOM      4  C   LIG d   1      -0.642  76.780 115.262  0.00  0.00     0.028 C 
ATOM      5  C   LIG d   1      -2.159  76.645 115.185  0.00  0.00    -0.047 C 
ATOM      6  C   LIG d   1      -2.629  75.638 116.260  0.00  0.00     0.091 C 
ENDROOT
BRANCH   1   7
ATOM      7  O   LIG d   1      -2.011  73.530 117.346  0.00  0.00    -0.368 OA
BRANCH   7   8
ATOM      8  C   LIG d   1      -0.895  73.656 118.261  0.00  0.00     0.119 C 
BRANCH   8   9
ATOM      9  C   LIG d   1      -0.835  72.363 119.098  0.00  0.00     0.028 C 
ATOM     10  C   LIG d   1      -1.500  72.524 120.475  0.00  0.00     0.006 C 
ENDBRANCH   8   9
BRANCH   8  11
ATOM     11  C   LIG d   1      -1.128  74.783 119.272  0.00  0.00     0.028 C 
ATOM     12  C   LIG d   1      -0.151  75.956 119.092  0.00  0.00     0.006 C 
ENDBRANCH   8  11
ENDBRANCH   7   8
ENDBRANCH   1   7
BRANCH   6  13
ATOM     13  N   LIG d   1      -4.092  75.384 116.198  0.00  0.00    -0.311 N 
ATOM     14  C   LIG d   1      -4.712  74.934 115.108  0.00  0.00     0.210 C 
ATOM     15  C   LIG d   1      -6.227  74.760 115.252  0.00  0.00     0.109 C 
ATOM     16  O   LIG d   1      -4.147  74.632 114.046  0.00  0.00    -0.276 OA
ATOM     17  H   LIG d   1      -4.623  75.573 117.025  0.00  0.00     0.149 HD
ENDBRANCH   6  13
BRANCH   5  18
ATOM     18  N   LIG d   1      -2.736  77.991 115.362  0.00  0.00     0.381 N 
ATOM     19  H   LIG d   1      -2.443  78.586 114.613  0.00  0.00    -0.090 HD
ATOM     20  H   LIG d   1      -2.397  78.379 116.224  0.00  0.00    -0.090 HD
ATOM     21  H   LIG d   1      -3.730  77.936 115.382  0.00  0.00    -0.090 HD
ENDBRANCH   5  18
BRANCH   3  22
ATOM     22  C   LIG d   1       1.299  75.502 114.680  0.00  0.00     0.382 C 
ATOM     23  O   LIG d   1       1.556  74.678 113.769  0.00  0.00    -0.241 OA
ATOM     24  O   LIG d   1       2.203  76.244 115.109  0.00  0.00    -0.241 OA
ENDBRANCH   3  22
TORSDOF 7
ENDMDL
