MODEL 1
REMARK VINA RESULT:      -6.0      0.000      0.000
REMARK  7 active torsions:
REMARK  status: ('A' for Active; 'I' for Inactive)
REMARK    1  A    between atoms: C_2  and  C_3 
REMARK    2  A    between atoms: C_3  and  O_6 
REMARK    3  A    between atoms: C_3  and  C_4 
REMARK    4  A    between atoms: C_7  and  O_6 
REMARK    5  A    between atoms: C_9  and  C_10 
REMARK    6  A    between atoms: N_15  and  C_14 
REMARK    7  A    between atoms: N_20  and  C_19 
REMARK       I    between atoms: C_22  and  N_20 
ROOT
ATOM      1  C   LIG d   1      -6.479  75.070 116.841  0.00  0.00     0.161 C 
ATOM      2  C   LIG d   1      -5.271  74.538 116.359  0.00  0.00     0.016 C 
ATOM      3  C   LIG d   1      -4.018  75.169 116.536  0.00  0.00     0.038 C 
ATOM      4  C   LIG d   1      -3.868  76.306 117.344  0.00  0.00     0.028 C 
ATOM      5  C   LIG d   1      -5.129  77.158 117.431  0.00  0.00    -0.047 C 
ATOM      6  C   LIG d   1      -6.320  76.252 117.820  0.00  0.00     0.091 C 
ENDROOT
BRANCH   1   7
ATOM      7  O   LIG d   1      -7.267  74.024 117.442  0.00  0.00    -0.368 OA
BRANCH   7   8
ATOM      8  C   LIG d   1      -8.198  73.343 116.566  0.00  0.00     0.119 C 
BRANCH   8   9
ATOM      9  C   LIG d   1      -9.599  73.458 117.199  0.00  0.00     0.028 C 
ATOM     10  C   LIG d   1     -10.167  74.885 117.111  0.00  0.00     0.006 C 
ENDBRANCH   8   9
BRANCH   8  11
ATOM     11  C   LIG d   1      -7.905  71.842 116.499  0.00  0.00     0.028 C 
ATOM     12  C   LIG d   1      -9.163  70.980 116.693  0.00  0.00     0.006 C 
ENDBRANCH   8  11
ENDBRANCH   7   8
ENDBRANCH   1   7
BRANCH   6  13
ATOM     13  N   LIG d   1      -7.610  76.991 117.845  0.00  0.00    -0.311 N 
ATOM     14  C   LIG d   1      -8.152  77.481 118.958  0.00  0.00     0.210 C 
ATOM     15  C   LIG d   1      -9.496  78.191 118.764  0.00  0.00     0.109 C 
ATOM     16  O   LIG d   1      -7.633  77.424 120.083  0.00  0.00    -0.276 OA
ATOM     17  H   LIG d   1      -8.084  77.111 116.971  0.00  0.00     0.149 HD
ENDBRANCH   6  13
BRANCH   5  18
ATOM     18  N   LIG d   1      -4.876  78.231 118.410  0.00  0.00     0.381 N 
ATOM     19  H   LIG d   1      -3.937  78.563 118.314  0.00  0.00    -0.090 HD
ATOM     20  H   LIG d   1      -4.985  77.859 119.337  0.00  0.00    -0.090 HD
ATOM     21  H   LIG d   1      -5.516  78.981 118.268  0.00  0.00    -0.090 HD
ENDBRANCH   5  18
BRANCH   3  22
ATOM     22  C   LIG d   1      -2.904  74.684 115.868  0.00  0.00     0.382 C 
ATOM     23  O   LIG d   1      -1.981  74.127 116.511  0.00  0.00    -0.241 OA
ATOM     24  O   LIG d   1      -2.790  74.835 114.637  0.00  0.00    -0.241 OA
ENDBRANCH   3  22
TORSDOF 7
ENDMDL
MODEL 2
REMARK VINA RESULT:      -5.7      1.942      5.278
REMARK  7 active torsions:
REMARK  status: ('A' for Active; 'I' for Inactive)
REMARK    1  A    between atoms: C_2  and  C_3 
REMARK    2  A    between atoms: C_3  and  O_6 
REMARK    3  A    between atoms: C_3  and  C_4 
REMARK    4  A    between atoms: C_7  and  O_6 
REMARK    5  A    between atoms: C_9  and  C_10 
REMARK    6  A    between atoms: N_15  and  C_14 
REMARK    7  A    between atoms: N_20  and  C_19 
REMARK       I    between atoms: C_22  and  N_20 
ROOT
ATOM      1  C   LIG d   1      -7.602  76.682 118.114  0.00  0.00     0.161 C 
ATOM      2  C   LIG d   1      -8.790  77.358 118.437  0.00  0.00     0.016 C 
ATOM      3  C   LIG d   1      -8.871  78.762 118.584  0.00  0.00     0.038 C 
ATOM      4  C   LIG d   1      -7.794  79.604 118.269  0.00  0.00     0.028 C 
ATOM      5  C   LIG d   1      -6.434  78.933 118.427  0.00  0.00    -0.047 C 
ATOM      6  C   LIG d   1      -6.443  77.593 117.657  0.00  0.00     0.091 C 
ENDROOT
BRANCH   1   7
ATOM      7  O   LIG d   1      -7.868  75.673 117.120  0.00  0.00    -0.368 OA
BRANCH   7   8
ATOM      8  C   LIG d   1      -8.031  74.320 117.612  0.00  0.00     0.119 C 
BRANCH   8   9
ATOM      9  C   LIG d   1      -6.951  73.450 116.941  0.00  0.00     0.028 C 
ATOM     10  C   LIG d   1      -6.239  74.182 115.790  0.00  0.00     0.006 C 
ENDBRANCH   8   9
BRANCH   8  11
ATOM     11  C   LIG d   1      -9.369  73.722 117.165  0.00  0.00     0.028 C 
ATOM     12  C   LIG d   1      -9.290  72.208 116.913  0.00  0.00     0.006 C 
ENDBRANCH   8  11
ENDBRANCH   7   8
ENDBRANCH   1   7
BRANCH   6  13
ATOM     13  N   LIG d   1      -5.178  76.832 117.830  0.00  0.00    -0.311 N 
ATOM     14  C   LIG d   1      -4.167  76.885 116.964  0.00  0.00     0.210 C 
ATOM     15  C   LIG d   1      -2.964  76.007 117.321  0.00  0.00     0.109 C 
ATOM     16  O   LIG d   1      -4.139  77.600 115.952  0.00  0.00    -0.276 OA
ATOM     17  H   LIG d   1      -5.103  76.249 118.641  0.00  0.00     0.149 HD
ENDBRANCH   6  13
BRANCH   5  18
ATOM     18  N   LIG d   1      -5.412  79.876 117.935  0.00  0.00     0.381 N 
ATOM     19  H   LIG d   1      -4.754  80.073 118.662  0.00  0.00    -0.090 HD
ATOM     20  H   LIG d   1      -5.862  80.736 117.675  0.00  0.00    -0.090 HD
ATOM     21  H   LIG d   1      -4.941  79.488 117.147  0.00  0.00    -0.090 HD
ENDBRANCH   5  18
BRANCH   3  22
ATOM     22  C   LIG d   1     -10.028  79.334 119.091  0.00  0.00     0.382 C 
ATOM     23  O   LIG d   1     -10.597  80.259 118.462  0.00  0.00    -0.241 OA
ATOM     24  O   LIG d   1     -10.485  78.967 120.190  0.00  0.00    -0.241 OA
ENDBRANCH   3  22
TORSDOF 7
ENDMDL
MODEL 3
REMARK VINA RESULT:      -5.5      2.319      5.434
REMARK  7 active torsions:
REMARK  status: ('A' for Active; 'I' for Inactive)
REMARK    1  A    between atoms: C_2  and  C_3 
REMARK    2  A    between atoms: C_3  and  O_6 
REMARK    3  A    between atoms: C_3  and  C_4 
REMARK    4  A    between atoms: C_7  and  O_6 
REMARK    5  A    between atoms: C_9  and  C_10 
REMARK    6  A    between atoms: N_15  and  C_14 
REMARK    7  A    between atoms: N_20  and  C_19 
REMARK       I    between atoms: C_22  and  N_20 
ROOT
ATOM      1  C   LIG d   1      -4.350  75.136 116.036  0.00  0.00     0.161 C 
ATOM      2  C   LIG d   1      -3.797  76.422 116.153  0.00  0.00     0.016 C 
ATOM      3  C   LIG d   1      -4.502  77.526 116.685  0.00  0.00     0.038 C 
ATOM      4  C   LIG d   1      -5.765  77.383 117.279  0.00  0.00     0.028 C 
ATOM      5  C   LIG d   1      -6.564  76.207 116.727  0.00  0.00    -0.047 C 
ATOM      6  C   LIG d   1      -5.686  74.936 116.780  0.00  0.00     0.091 C 
ENDROOT
BRANCH   1   7
ATOM      7  O   LIG d   1      -3.388  74.150 116.460  0.00  0.00    -0.368 OA
BRANCH   7   8
ATOM      8  C   LIG d   1      -2.084  74.654 116.841  0.00  0.00     0.119 C 
BRANCH   8   9
ATOM      9  C   LIG d   1      -1.073  74.167 115.785  0.00  0.00     0.028 C 
ATOM     10  C   LIG d   1      -0.529  75.316 114.919  0.00  0.00     0.006 C 
ENDBRANCH   8   9
BRANCH   8  11
ATOM     11  C   LIG d   1      -1.614  74.043 118.164  0.00  0.00     0.028 C 
ATOM     12  C   LIG d   1      -1.398  75.095 119.263  0.00  0.00     0.006 C 
ENDBRANCH   8  11
ENDBRANCH   7   8
ENDBRANCH   1   7
BRANCH   6  13
ATOM     13  N   LIG d   1      -6.362  73.755 116.181  0.00  0.00    -0.311 N 
ATOM     14  C   LIG d   1      -7.190  72.962 116.859  0.00  0.00     0.210 C 
ATOM     15  C   LIG d   1      -7.764  71.789 116.058  0.00  0.00     0.109 C 
ATOM     16  O   LIG d   1      -7.529  73.137 118.039  0.00  0.00    -0.276 OA
ATOM     17  H   LIG d   1      -6.168  73.558 115.219  0.00  0.00     0.149 HD
ENDBRANCH   6  13
BRANCH   5  18
ATOM     18  N   LIG d   1      -7.798  76.092 117.528  0.00  0.00     0.381 N 
ATOM     19  H   LIG d   1      -7.958  76.943 118.028  0.00  0.00    -0.090 HD
ATOM     20  H   LIG d   1      -7.683  75.350 118.197  0.00  0.00    -0.090 HD
ATOM     21  H   LIG d   1      -8.573  75.896 116.934  0.00  0.00    -0.090 HD
ENDBRANCH   5  18
BRANCH   3  22
ATOM     22  C   LIG d   1      -3.959  78.798 116.590  0.00  0.00     0.382 C 
ATOM     23  O   LIG d   1      -2.717  78.945 116.498  0.00  0.00    -0.241 OA
ATOM     24  O   LIG d   1      -4.693  79.804 116.639  0.00  0.00    -0.241 OA
ENDBRANCH   3  22
TORSDOF 7
ENDMDL
MODEL 4
REMARK VINA RESULT:      -5.4      2.070      5.124
REMARK  7 active torsions:
REMARK  status: ('A' for Active; 'I' for Inactive)
REMARK    1  A    between atoms: C_2  and  C_3 
REMARK    2  A    between atoms: C_3  and  O_6 
REMARK    3  A    between atoms: C_3  and  C_4 
REMARK    4  A    between atoms: C_7  and  O_6 
REMARK    5  A    between atoms: C_9  and  C_10 
REMARK    6  A    between atoms: N_15  and  C_14 
REMARK    7  A    between atoms: N_20  and  C_19 
REMARK       I    between atoms: C_22  and  N_20 
ROOT
ATOM      1  C   LIG d   1      -7.820  75.878 117.501  0.00  0.00     0.161 C 
ATOM      2  C   LIG d   1      -8.474  74.637 117.421  0.00  0.00     0.016 C 
ATOM      3  C   LIG d   1      -7.843  73.451 116.979  0.00  0.00     0.038 C 
ATOM      4  C   LIG d   1      -6.464  73.395 116.729  0.00  0.00     0.028 C 
ATOM      5  C   LIG d   1      -5.869  74.735 116.311  0.00  0.00    -0.047 C 
ATOM      6  C   LIG d   1      -6.287  75.812 117.338  0.00  0.00     0.091 C 
ENDROOT
BRANCH   1   7
ATOM      7  O   LIG d   1      -8.164  76.533 118.738  0.00  0.00    -0.368 OA
BRANCH   7   8
ATOM      8  C   LIG d   1      -8.404  77.960 118.658  0.00  0.00     0.119 C 
BRANCH   8   9
ATOM      9  C   LIG d   1      -7.768  78.606 119.903  0.00  0.00     0.028 C 
ATOM     10  C   LIG d   1      -6.733  77.690 120.577  0.00  0.00     0.006 C 
ENDBRANCH   8   9
BRANCH   8  11
ATOM     11  C   LIG d   1      -9.898  78.280 118.752  0.00  0.00     0.028 C 
ATOM     12  C   LIG d   1     -10.178  79.610 119.470  0.00  0.00     0.006 C 
ENDBRANCH   8  11
ENDBRANCH   7   8
ENDBRANCH   1   7
BRANCH   6  13
ATOM     13  N   LIG d   1      -5.816  77.170 116.959  0.00  0.00    -0.311 N 
ATOM     14  C   LIG d   1      -4.698  77.717 117.433  0.00  0.00     0.210 C 
ATOM     15  C   LIG d   1      -4.408  79.134 116.928  0.00  0.00     0.109 C 
ATOM     16  O   LIG d   1      -3.903  77.151 118.198  0.00  0.00    -0.276 OA
ATOM     17  H   LIG d   1      -6.385  77.687 116.318  0.00  0.00     0.149 HD
ENDBRANCH   6  13
BRANCH   5  18
ATOM     18  N   LIG d   1      -4.407  74.563 116.216  0.00  0.00     0.381 N 
ATOM     19  H   LIG d   1      -3.951  75.436 116.392  0.00  0.00    -0.090 HD
ATOM     20  H   LIG d   1      -4.174  74.268 115.284  0.00  0.00    -0.090 HD
ATOM     21  H   LIG d   1      -4.100  73.881 116.874  0.00  0.00    -0.090 HD
ENDBRANCH   5  18
BRANCH   3  22
ATOM     22  C   LIG d   1      -8.602  72.315 116.745  0.00  0.00     0.382 C 
ATOM     23  O   LIG d   1      -8.267  71.512 115.842  0.00  0.00    -0.241 OA
ATOM     24  O   LIG d   1      -9.643  72.106 117.397  0.00  0.00    -0.241 OA
ENDBRANCH   3  22
TORSDOF 7
ENDMDL
MODEL 5
REMARK VINA RESULT:      -5.4      2.027      5.242
REMARK  7 active torsions:
REMARK  status: ('A' for Active; 'I' for Inactive)
REMARK    1  A    between atoms: C_2  and  C_3 
REMARK    2  A    between atoms: C_3  and  O_6 
REMARK    3  A    between atoms: C_3  and  C_4 
REMARK    4  A    between atoms: C_7  and  O_6 
REMARK    5  A    between atoms: C_9  and  C_10 
REMARK    6  A    between atoms: N_15  and  C_14 
REMARK    7  A    between atoms: N_20  and  C_19 
REMARK       I    between atoms: C_22  and  N_20 
ROOT
ATOM      1  C   LIG d   1      -5.591  75.072 116.267  0.00  0.00     0.161 C 
ATOM      2  C   LIG d   1      -6.342  73.900 116.076  0.00  0.00     0.016 C 
ATOM      3  C   LIG d   1      -7.548  73.629 116.763  0.00  0.00     0.038 C 
ATOM      4  C   LIG d   1      -8.167  74.586 117.581  0.00  0.00     0.028 C 
ATOM      5  C   LIG d   1      -7.188  75.583 118.194  0.00  0.00    -0.047 C 
ATOM      6  C   LIG d   1      -6.307  76.176 117.071  0.00  0.00     0.091 C 
ENDROOT
BRANCH   1   7
ATOM      7  O   LIG d   1      -5.153  75.584 114.992  0.00  0.00    -0.368 OA
BRANCH   7   8
ATOM      8  C   LIG d   1      -3.728  75.528 114.738  0.00  0.00     0.119 C 
BRANCH   8   9
ATOM      9  C   LIG d   1      -3.072  74.810 115.933  0.00  0.00     0.028 C 
ATOM     10  C   LIG d   1      -1.578  74.531 115.702  0.00  0.00     0.006 C 
ENDBRANCH   8   9
BRANCH   8  11
ATOM     11  C   LIG d   1      -3.110  76.929 114.718  0.00  0.00     0.028 C 
ATOM     12  C   LIG d   1      -2.685  77.373 113.309  0.00  0.00     0.006 C 
ENDBRANCH   8  11
ENDBRANCH   7   8
ENDBRANCH   1   7
BRANCH   6  13
ATOM     13  N   LIG d   1      -5.266  77.098 117.596  0.00  0.00    -0.311 N 
ATOM     14  C   LIG d   1      -5.421  78.419 117.659  0.00  0.00     0.210 C 
ATOM     15  C   LIG d   1      -4.217  79.186 118.214  0.00  0.00     0.109 C 
ATOM     16  O   LIG d   1      -6.455  79.026 117.339  0.00  0.00    -0.276 OA
ATOM     17  H   LIG d   1      -4.408  76.687 117.906  0.00  0.00     0.149 HD
ENDBRANCH   6  13
BRANCH   5  18
ATOM     18  N   LIG d   1      -7.980  76.602 118.908  0.00  0.00     0.381 N 
ATOM     19  H   LIG d   1      -8.610  77.048 118.272  0.00  0.00    -0.090 HD
ATOM     20  H   LIG d   1      -7.356  77.299 119.275  0.00  0.00    -0.090 HD
ATOM     21  H   LIG d   1      -8.490  76.179 119.651  0.00  0.00    -0.090 HD
ENDBRANCH   5  18
BRANCH   3  22
ATOM     22  C   LIG d   1      -8.126  72.373 116.666  0.00  0.00     0.382 C 
ATOM     23  O   LIG d   1      -8.997  72.018 117.496  0.00  0.00    -0.241 OA
ATOM     24  O   LIG d   1      -7.757  71.574 115.785  0.00  0.00    -0.241 OA
ENDBRANCH   3  22
TORSDOF 7
ENDMDL
MODEL 6
REMARK VINA RESULT:      -5.3      1.393      2.207
REMARK  7 active torsions:
REMARK  status: ('A' for Active; 'I' for Inactive)
REMARK    1  A    between atoms: C_2  and  C_3 
REMARK    2  A    between atoms: C_3  and  O_6 
REMARK    3  A    between atoms: C_3  and  C_4 
REMARK    4  A    between atoms: C_7  and  O_6 
REMARK    5  A    between atoms: C_9  and  C_10 
REMARK    6  A    between atoms: N_15  and  C_14 
REMARK    7  A    between atoms: N_20  and  C_19 
REMARK       I    between atoms: C_22  and  N_20 
ROOT
ATOM      1  C   LIG d   1      -5.315  76.047 116.177  0.00  0.00     0.161 C 
ATOM      2  C   LIG d   1      -4.273  75.166 115.841  0.00  0.00     0.016 C 
ATOM      3  C   LIG d   1      -3.059  75.087 116.561  0.00  0.00     0.038 C 
ATOM      4  C   LIG d   1      -2.863  75.781 117.765  0.00  0.00     0.028 C 
ATOM      5  C   LIG d   1      -3.687  77.060 117.867  0.00  0.00    -0.047 C 
ATOM      6  C   LIG d   1      -5.164  76.732 117.552  0.00  0.00     0.091 C 
ENDROOT
BRANCH   1   7
ATOM      7  O   LIG d   1      -6.580  75.361 116.095  0.00  0.00    -0.368 OA
BRANCH   7   8
ATOM      8  C   LIG d   1      -6.768  74.258 117.016  0.00  0.00     0.119 C 
BRANCH   8   9
ATOM      9  C   LIG d   1      -7.096  73.007 116.178  0.00  0.00     0.028 C 
ATOM     10  C   LIG d   1      -8.126  72.094 116.866  0.00  0.00     0.006 C 
ENDBRANCH   8   9
BRANCH   8  11
ATOM     11  C   LIG d   1      -7.993  74.481 117.909  0.00  0.00     0.028 C 
ATOM     12  C   LIG d   1      -8.879  75.640 117.426  0.00  0.00     0.006 C 
ENDBRANCH   8  11
ENDBRANCH   7   8
ENDBRANCH   1   7
BRANCH   6  13
ATOM     13  N   LIG d   1      -6.026  77.943 117.547  0.00  0.00    -0.311 N 
ATOM     14  C   LIG d   1      -6.718  78.355 118.608  0.00  0.00     0.210 C 
ATOM     15  C   LIG d   1      -7.558  79.616 118.382  0.00  0.00     0.109 C 
ATOM     16  O   LIG d   1      -6.691  77.813 119.723  0.00  0.00    -0.276 OA
ATOM     17  H   LIG d   1      -6.081  78.460 116.691  0.00  0.00     0.149 HD
ENDBRANCH   6  13
BRANCH   5  18
ATOM     18  N   LIG d   1      -3.493  77.608 119.222  0.00  0.00     0.381 N 
ATOM     19  H   LIG d   1      -4.212  78.274 119.425  0.00  0.00    -0.090 HD
ATOM     20  H   LIG d   1      -2.607  78.081 119.258  0.00  0.00    -0.090 HD
ATOM     21  H   LIG d   1      -3.512  76.873 119.894  0.00  0.00    -0.090 HD
ENDBRANCH   5  18
BRANCH   3  22
ATOM     22  C   LIG d   1      -2.008  74.336 116.056  0.00  0.00     0.382 C 
ATOM     23  O   LIG d   1      -1.937  74.105 114.825  0.00  0.00    -0.241 OA
ATOM     24  O   LIG d   1      -1.154  73.849 116.821  0.00  0.00    -0.241 OA
ENDBRANCH   3  22
TORSDOF 7
ENDMDL
MODEL 7
REMARK VINA RESULT:      -5.3      3.393      5.589
REMARK  7 active torsions:
REMARK  status: ('A' for Active; 'I' for Inactive)
REMARK    1  A    between atoms: C_2  and  C_3 
REMARK    2  A    between atoms: C_3  and  O_6 
REMARK    3  A    between atoms: C_3  and  C_4 
REMARK    4  A    between atoms: C_7  and  O_6 
REMARK    5  A    between atoms: C_9  and  C_10 
REMARK    6  A    between atoms: N_15  and  C_14 
REMARK    7  A    between atoms: N_20  and  C_19 
REMARK       I    between atoms: C_22  and  N_20 
ROOT
ATOM      1  C   LIG d   1      -3.164  77.128 117.241  0.00  0.00     0.161 C 
ATOM      2  C   LIG d   1      -3.397  78.206 116.371  0.00  0.00     0.016 C 
ATOM      3  C   LIG d   1      -2.528  78.554 115.312  0.00  0.00     0.038 C 
ATOM      4  C   LIG d   1      -1.436  77.749 114.954  0.00  0.00     0.028 C 
ATOM      5  C   LIG d   1      -0.878  76.934 116.117  0.00  0.00    -0.047 C 
ATOM      6  C   LIG d   1      -2.037  76.172 116.798  0.00  0.00     0.091 C 
ENDROOT
BRANCH   1   7
ATOM      7  O   LIG d   1      -4.388  76.396 117.451  0.00  0.00    -0.368 OA
BRANCH   7   8
ATOM      8  C   LIG d   1      -5.418  76.576 116.448  0.00  0.00     0.119 C 
BRANCH   8   9
ATOM      9  C   LIG d   1      -6.767  76.692 117.185  0.00  0.00     0.028 C 
ATOM     10  C   LIG d   1      -7.398  75.320 117.472  0.00  0.00     0.006 C 
ENDBRANCH   8   9
BRANCH   8  11
ATOM     11  C   LIG d   1      -5.549  75.338 115.556  0.00  0.00     0.028 C 
ATOM     12  C   LIG d   1      -4.979  75.557 114.145  0.00  0.00     0.006 C 
ENDBRANCH   8  11
ENDBRANCH   7   8
ENDBRANCH   1   7
BRANCH   6  13
ATOM     13  N   LIG d   1      -1.591  75.416 117.997  0.00  0.00    -0.311 N 
ATOM     14  C   LIG d   1      -1.245  74.130 117.966  0.00  0.00     0.210 C 
ATOM     15  C   LIG d   1      -0.835  73.538 119.318  0.00  0.00     0.109 C 
ATOM     16  O   LIG d   1      -1.208  73.432 116.942  0.00  0.00    -0.276 OA
ATOM     17  H   LIG d   1      -1.562  75.913 118.865  0.00  0.00     0.149 HD
ENDBRANCH   6  13
BRANCH   5  18
ATOM     18  N   LIG d   1       0.163  76.040 115.575  0.00  0.00     0.381 N 
ATOM     19  H   LIG d   1       0.331  76.260 114.614  0.00  0.00    -0.090 HD
ATOM     20  H   LIG d   1      -0.163  75.091 115.629  0.00  0.00    -0.090 HD
ATOM     21  H   LIG d   1       1.005  76.140 116.099  0.00  0.00    -0.090 HD
ENDBRANCH   5  18
BRANCH   3  22
ATOM     22  C   LIG d   1      -2.724  79.741 114.623  0.00  0.00     0.382 C 
ATOM     23  O   LIG d   1      -3.511  80.606 115.077  0.00  0.00    -0.241 OA
ATOM     24  O   LIG d   1      -2.159  79.938 113.530  0.00  0.00    -0.241 OA
ENDBRANCH   3  22
TORSDOF 7
ENDMDL
MODEL 8
REMARK VINA RESULT:      -5.1      1.886      2.458
REMARK  7 active torsions:
REMARK  status: ('A' for Active; 'I' for Inactive)
REMARK    1  A    between atoms: C_2  and  C_3 
REMARK    2  A    between atoms: C_3  and  O_6 
REMARK    3  A    between atoms: C_3  and  C_4 
REMARK    4  A    between atoms: C_7  and  O_6 
REMARK    5  A    between atoms: C_9  and  C_10 
REMARK    6  A    between atoms: N_15  and  C_14 
REMARK    7  A    between atoms: N_20  and  C_19 
REMARK       I    between atoms: C_22  and  N_20 
ROOT
ATOM      1  C   LIG d   1      -5.364  76.490 116.895  0.00  0.00     0.161 C 
ATOM      2  C   LIG d   1      -4.497  75.424 116.604  0.00  0.00     0.016 C 
ATOM      3  C   LIG d   1      -3.090  75.557 116.551  0.00  0.00     0.038 C 
ATOM      4  C   LIG d   1      -2.442  76.740 116.937  0.00  0.00     0.028 C 
ATOM      5  C   LIG d   1      -3.299  77.988 116.750  0.00  0.00    -0.047 C 
ATOM      6  C   LIG d   1      -4.670  77.762 117.427  0.00  0.00     0.091 C 
ENDROOT
BRANCH   1   7
ATOM      7  O   LIG d   1      -6.383  76.054 117.815  0.00  0.00    -0.368 OA
BRANCH   7   8
ATOM      8  C   LIG d   1      -7.544  75.418 117.226  0.00  0.00     0.119 C 
BRANCH   8   9
ATOM      9  C   LIG d   1      -8.787  76.201 117.692  0.00  0.00     0.028 C 
ATOM     10  C   LIG d   1      -8.442  77.293 118.719  0.00  0.00     0.006 C 
ENDBRANCH   8   9
BRANCH   8  11
ATOM     11  C   LIG d   1      -7.735  73.997 117.764  0.00  0.00     0.028 C 
ATOM     12  C   LIG d   1      -7.337  72.916 116.746  0.00  0.00     0.006 C 
ENDBRANCH   8  11
ENDBRANCH   7   8
ENDBRANCH   1   7
BRANCH   6  13
ATOM     13  N   LIG d   1      -5.600  78.902 117.219  0.00  0.00    -0.311 N 
ATOM     14  C   LIG d   1      -5.742  79.900 118.090  0.00  0.00     0.210 C 
ATOM     15  C   LIG d   1      -6.769  80.964 117.691  0.00  0.00     0.109 C 
ATOM     16  O   LIG d   1      -5.092  80.022 119.139  0.00  0.00    -0.276 OA
ATOM     17  H   LIG d   1      -6.144  78.899 116.379  0.00  0.00     0.149 HD
ENDBRANCH   6  13
BRANCH   5  18
ATOM     18  N   LIG d   1      -2.555  79.128 117.318  0.00  0.00     0.381 N 
ATOM     19  H   LIG d   1      -1.628  78.841 117.560  0.00  0.00    -0.090 HD
ATOM     20  H   LIG d   1      -3.019  79.435 118.155  0.00  0.00    -0.090 HD
ATOM     21  H   LIG d   1      -2.518  79.874 116.658  0.00  0.00    -0.090 HD
ENDBRANCH   5  18
BRANCH   3  22
ATOM     22  C   LIG d   1      -2.318  74.510 116.070  0.00  0.00     0.382 C 
ATOM     23  O   LIG d   1      -1.504  73.932 116.829  0.00  0.00    -0.241 OA
ATOM     24  O   LIG d   1      -2.394  74.167 114.875  0.00  0.00    -0.241 OA
ENDBRANCH   3  22
TORSDOF 7
ENDMDL
MODEL 9
REMARK VINA RESULT:      -5.1      2.853      5.623
REMARK  7 active torsions:
REMARK  status: ('A' for Active; 'I' for Inactive)
REMARK    1  A    between atoms: C_2  and  C_3 
REMARK    2  A    between atoms: C_3  and  O_6 
REMARK    3  A    between atoms: C_3  and  C_4 
REMARK    4  A    between atoms: C_7  and  O_6 
REMARK    5  A    between atoms: C_9  and  C_10 
REMARK    6  A    between atoms: N_15  and  C_14 
REMARK    7  A    between atoms: N_20  and  C_19 
REMARK       I    between atoms: C_22  and  N_20 
ROOT
ATOM      1  C   LIG d   1      -4.811  77.457 116.874  0.00  0.00     0.161 C 
ATOM      2  C   LIG d   1      -5.479  78.644 117.217  0.00  0.00     0.016 C 
ATOM      3  C   LIG d   1      -4.909  79.929 117.065  0.00  0.00     0.038 C 
ATOM      4  C   LIG d   1      -3.682  80.124 116.415  0.00  0.00     0.028 C 
ATOM      5  C   LIG d   1      -2.749  78.921 116.508  0.00  0.00    -0.047 C 
ATOM      6  C   LIG d   1      -3.515  77.656 116.060  0.00  0.00     0.091 C 
ENDROOT
BRANCH   1   7
ATOM      7  O   LIG d   1      -5.710  76.574 116.175  0.00  0.00    -0.368 OA
BRANCH   7   8
ATOM      8  C   LIG d   1      -5.924  75.274 116.779  0.00  0.00     0.119 C 
BRANCH   8   9
ATOM      9  C   LIG d   1      -5.860  74.225 115.652  0.00  0.00     0.028 C 
ATOM     10  C   LIG d   1      -5.369  74.821 114.322  0.00  0.00     0.006 C 
ENDBRANCH   8   9
BRANCH   8  11
ATOM     11  C   LIG d   1      -7.335  75.156 117.362  0.00  0.00     0.028 C 
ATOM     12  C   LIG d   1      -7.750  73.700 117.629  0.00  0.00     0.006 C 
ENDBRANCH   8  11
ENDBRANCH   7   8
ENDBRANCH   1   7
BRANCH   6  13
ATOM     13  N   LIG d   1      -2.701  76.420 116.201  0.00  0.00    -0.311 N 
ATOM     14  C   LIG d   1      -2.021  75.872 115.196  0.00  0.00     0.210 C 
ATOM     15  C   LIG d   1      -1.263  74.589 115.552  0.00  0.00     0.109 C 
ATOM     16  O   LIG d   1      -1.947  76.343 114.052  0.00  0.00    -0.276 OA
ATOM     17  H   LIG d   1      -2.680  75.989 117.105  0.00  0.00     0.149 HD
ENDBRANCH   6  13
BRANCH   5  18
ATOM     18  N   LIG d   1      -1.567  79.208 115.674  0.00  0.00     0.381 N 
ATOM     19  H   LIG d   1      -1.261  78.370 115.221  0.00  0.00    -0.090 HD
ATOM     20  H   LIG d   1      -0.823  79.536 116.265  0.00  0.00    -0.090 HD
ATOM     21  H   LIG d   1      -1.790  79.899 114.992  0.00  0.00    -0.090 HD
ENDBRANCH   5  18
BRANCH   3  22
ATOM     22  C   LIG d   1      -5.552  81.034 117.603  0.00  0.00     0.382 C 
ATOM     23  O   LIG d   1      -6.526  81.546 117.002  0.00  0.00    -0.241 OA
ATOM     24  O   LIG d   1      -5.142  81.551 118.659  0.00  0.00    -0.241 OA
ENDBRANCH   3  22
TORSDOF 7
ENDMDL
