MODEL 1
REMARK VINA RESULT:      -5.7      0.000      0.000
REMARK  7 active torsions:
REMARK  status: ('A' for Active; 'I' for Inactive)
REMARK    1  A    between atoms: C_2  and  C_3 
REMARK    2  A    between atoms: C_3  and  O_6 
REMARK    3  A    between atoms: C_3  and  C_4 
REMARK    4  A    between atoms: C_7  and  O_6 
REMARK    5  A    between atoms: C_9  and  C_10 
REMARK    6  A    between atoms: N_15  and  C_14 
REMARK    7  A    between atoms: N_20  and  C_19 
REMARK       I    between atoms: C_22  and  N_20 
ROOT
ATOM      1  C   LIG d   1      -6.505  75.755 116.717  0.00  0.00     0.161 C 
ATOM      2  C   LIG d   1      -5.632  76.201 115.711  0.00  0.00     0.016 C 
ATOM      3  C   LIG d   1      -4.938  75.329 114.840  0.00  0.00     0.038 C 
ATOM      4  C   LIG d   1      -5.189  73.949 114.817  0.00  0.00     0.028 C 
ATOM      5  C   LIG d   1      -5.685  73.402 116.152  0.00  0.00    -0.047 C 
ATOM      6  C   LIG d   1      -6.877  74.259 116.634  0.00  0.00     0.091 C 
ENDROOT
BRANCH   1   7
ATOM      7  O   LIG d   1      -7.696  76.567 116.725  0.00  0.00    -0.368 OA
BRANCH   7   8
ATOM      8  C   LIG d   1      -8.099  77.093 118.013  0.00  0.00     0.119 C 
BRANCH   8   9
ATOM      9  C   LIG d   1      -9.555  76.653 118.258  0.00  0.00     0.028 C 
ATOM     10  C   LIG d   1      -9.829  76.327 119.736  0.00  0.00     0.006 C 
ENDBRANCH   8   9
BRANCH   8  11
ATOM     11  C   LIG d   1      -8.135  78.624 118.003  0.00  0.00     0.028 C 
ATOM     12  C   LIG d   1      -6.744  79.251 117.814  0.00  0.00     0.006 C 
ENDBRANCH   8  11
ENDBRANCH   7   8
ENDBRANCH   1   7
BRANCH   6  13
ATOM     13  N   LIG d   1      -7.368  73.844 117.974  0.00  0.00    -0.311 N 
ATOM     14  C   LIG d   1      -8.356  72.969 118.153  0.00  0.00     0.210 C 
ATOM     15  C   LIG d   1      -8.721  72.696 119.616  0.00  0.00     0.109 C 
ATOM     16  O   LIG d   1      -8.944  72.369 117.241  0.00  0.00    -0.276 OA
ATOM     17  H   LIG d   1      -6.926  74.258 118.771  0.00  0.00     0.149 HD
ENDBRANCH   6  13
BRANCH   5  18
ATOM     18  N   LIG d   1      -6.037  71.984 115.948  0.00  0.00     0.381 N 
ATOM     19  H   LIG d   1      -6.061  71.778 114.970  0.00  0.00    -0.090 HD
ATOM     20  H   LIG d   1      -6.953  71.819 116.328  0.00  0.00    -0.090 HD
ATOM     21  H   LIG d   1      -5.371  71.398 116.402  0.00  0.00    -0.090 HD
ENDBRANCH   5  18
BRANCH   3  22
ATOM     22  C   LIG d   1      -3.952  75.833 114.005  0.00  0.00     0.382 C 
ATOM     23  O   LIG d   1      -4.261  76.592 113.056  0.00  0.00    -0.241 OA
ATOM     24  O   LIG d   1      -2.761  75.502 114.163  0.00  0.00    -0.241 OA
ENDBRANCH   3  22
TORSDOF 7
ENDMDL
MODEL 2
REMARK VINA RESULT:      -5.6      2.296      4.328
REMARK  7 active torsions:
REMARK  status: ('A' for Active; 'I' for Inactive)
REMARK    1  A    between atoms: C_2  and  C_3 
REMARK    2  A    between atoms: C_3  and  O_6 
REMARK    3  A    between atoms: C_3  and  C_4 
REMARK    4  A    between atoms: C_7  and  O_6 
REMARK    5  A    between atoms: C_9  and  C_10 
REMARK    6  A    between atoms: N_15  and  C_14 
REMARK    7  A    between atoms: N_20  and  C_19 
REMARK       I    between atoms: C_22  and  N_20 
ROOT
ATOM      1  C   LIG d   1      -7.868  75.248 116.656  0.00  0.00     0.161 C 
ATOM      2  C   LIG d   1      -6.864  74.502 116.015  0.00  0.00     0.016 C 
ATOM      3  C   LIG d   1      -5.509  74.902 115.967  0.00  0.00     0.038 C 
ATOM      4  C   LIG d   1      -5.035  76.005 116.692  0.00  0.00     0.028 C 
ATOM      5  C   LIG d   1      -6.098  77.069 116.939  0.00  0.00    -0.047 C 
ATOM      6  C   LIG d   1      -7.350  76.397 117.547  0.00  0.00     0.091 C 
ENDROOT
BRANCH   1   7
ATOM      7  O   LIG d   1      -8.719  74.368 117.417  0.00  0.00    -0.368 OA
BRANCH   7   8
ATOM      8  C   LIG d   1      -8.136  73.102 117.812  0.00  0.00     0.119 C 
BRANCH   8   9
ATOM      9  C   LIG d   1      -8.885  71.990 117.051  0.00  0.00     0.028 C 
ATOM     10  C   LIG d   1      -8.804  70.632 117.768  0.00  0.00     0.006 C 
ENDBRANCH   8   9
BRANCH   8  11
ATOM     11  C   LIG d   1      -8.382  72.814 119.296  0.00  0.00     0.028 C 
ATOM     12  C   LIG d   1      -8.661  74.086 120.112  0.00  0.00     0.006 C 
ENDBRANCH   8  11
ENDBRANCH   7   8
ENDBRANCH   1   7
BRANCH   6  13
ATOM     13  N   LIG d   1      -8.470  77.354 117.742  0.00  0.00    -0.311 N 
ATOM     14  C   LIG d   1      -8.707  77.980 118.893  0.00  0.00     0.210 C 
ATOM     15  C   LIG d   1      -9.925  78.910 118.885  0.00  0.00     0.109 C 
ATOM     16  O   LIG d   1      -8.006  77.879 119.911  0.00  0.00    -0.276 OA
ATOM     17  H   LIG d   1      -9.071  77.519 116.958  0.00  0.00     0.149 HD
ENDBRANCH   6  13
BRANCH   5  18
ATOM     18  N   LIG d   1      -5.507  78.094 117.820  0.00  0.00     0.381 N 
ATOM     19  H   LIG d   1      -4.762  78.562 117.344  0.00  0.00    -0.090 HD
ATOM     20  H   LIG d   1      -5.127  77.643 118.634  0.00  0.00    -0.090 HD
ATOM     21  H   LIG d   1      -6.203  78.753 118.092  0.00  0.00    -0.090 HD
ENDBRANCH   5  18
BRANCH   3  22
ATOM     22  C   LIG d   1      -4.619  74.216 115.154  0.00  0.00     0.382 C 
ATOM     23  O   LIG d   1      -3.385  74.301 115.364  0.00  0.00    -0.241 OA
ATOM     24  O   LIG d   1      -5.032  73.548 114.187  0.00  0.00    -0.241 OA
ENDBRANCH   3  22
TORSDOF 7
ENDMDL
MODEL 3
REMARK VINA RESULT:      -5.3      2.131      4.826
REMARK  7 active torsions:
REMARK  status: ('A' for Active; 'I' for Inactive)
REMARK    1  A    between atoms: C_2  and  C_3 
REMARK    2  A    between atoms: C_3  and  O_6 
REMARK    3  A    between atoms: C_3  and  C_4 
REMARK    4  A    between atoms: C_7  and  O_6 
REMARK    5  A    between atoms: C_9  and  C_10 
REMARK    6  A    between atoms: N_15  and  C_14 
REMARK    7  A    between atoms: N_20  and  C_19 
REMARK       I    between atoms: C_22  and  N_20 
ROOT
ATOM      1  C   LIG d   1      -6.473  76.042 116.876  0.00  0.00     0.161 C 
ATOM      2  C   LIG d   1      -6.193  77.413 116.999  0.00  0.00     0.016 C 
ATOM      3  C   LIG d   1      -7.005  78.310 117.729  0.00  0.00     0.038 C 
ATOM      4  C   LIG d   1      -8.077  77.867 118.517  0.00  0.00     0.028 C 
ATOM      5  C   LIG d   1      -8.697  76.565 118.019  0.00  0.00    -0.047 C 
ATOM      6  C   LIG d   1      -7.576  75.520 117.819  0.00  0.00     0.091 C 
ENDROOT
BRANCH   1   7
ATOM      7  O   LIG d   1      -5.263  75.278 117.049  0.00  0.00    -0.368 OA
BRANCH   7   8
ATOM      8  C   LIG d   1      -4.452  75.090 115.864  0.00  0.00     0.119 C 
BRANCH   8   9
ATOM      9  C   LIG d   1      -5.246  74.189 114.898  0.00  0.00     0.028 C 
ATOM     10  C   LIG d   1      -5.509  72.791 115.482  0.00  0.00     0.006 C 
ENDBRANCH   8   9
BRANCH   8  11
ATOM     11  C   LIG d   1      -3.171  74.313 116.182  0.00  0.00     0.028 C 
ATOM     12  C   LIG d   1      -2.626  74.613 117.587  0.00  0.00     0.006 C 
ENDBRANCH   8  11
ENDBRANCH   7   8
ENDBRANCH   1   7
BRANCH   6  13
ATOM     13  N   LIG d   1      -8.086  74.244 117.253  0.00  0.00    -0.311 N 
ATOM     14  C   LIG d   1      -8.428  73.195 118.000  0.00  0.00     0.210 C 
ATOM     15  C   LIG d   1      -8.910  71.971 117.214  0.00  0.00     0.109 C 
ATOM     16  O   LIG d   1      -8.408  73.173 119.240  0.00  0.00    -0.276 OA
ATOM     17  H   LIG d   1      -8.163  74.185 116.257  0.00  0.00     0.149 HD
ENDBRANCH   6  13
BRANCH   5  18
ATOM     18  N   LIG d   1      -9.709  76.147 119.007  0.00  0.00     0.381 N 
ATOM     19  H   LIG d   1      -9.262  75.906 119.869  0.00  0.00    -0.090 HD
ATOM     20  H   LIG d   1     -10.185  75.332 118.660  0.00  0.00    -0.090 HD
ATOM     21  H   LIG d   1     -10.363  76.883 119.158  0.00  0.00    -0.090 HD
ENDBRANCH   5  18
BRANCH   3  22
ATOM     22  C   LIG d   1      -6.771  79.674 117.644  0.00  0.00     0.382 C 
ATOM     23  O   LIG d   1      -7.735  80.476 117.623  0.00  0.00    -0.241 OA
ATOM     24  O   LIG d   1      -5.608  80.111 117.543  0.00  0.00    -0.241 OA
ENDBRANCH   3  22
TORSDOF 7
ENDMDL
MODEL 4
REMARK VINA RESULT:      -5.2      2.535      6.244
REMARK  7 active torsions:
REMARK  status: ('A' for Active; 'I' for Inactive)
REMARK    1  A    between atoms: C_2  and  C_3 
REMARK    2  A    between atoms: C_3  and  O_6 
REMARK    3  A    between atoms: C_3  and  C_4 
REMARK    4  A    between atoms: C_7  and  O_6 
REMARK    5  A    between atoms: C_9  and  C_10 
REMARK    6  A    between atoms: N_15  and  C_14 
REMARK    7  A    between atoms: N_20  and  C_19 
REMARK       I    between atoms: C_22  and  N_20 
ROOT
ATOM      1  C   LIG d   1      -7.362  75.888 117.876  0.00  0.00     0.161 C 
ATOM      2  C   LIG d   1      -8.664  76.332 118.162  0.00  0.00     0.016 C 
ATOM      3  C   LIG d   1      -9.014  77.697 118.272  0.00  0.00     0.038 C 
ATOM      4  C   LIG d   1      -8.111  78.722 117.952  0.00  0.00     0.028 C 
ATOM      5  C   LIG d   1      -6.651  78.327 118.149  0.00  0.00    -0.047 C 
ATOM      6  C   LIG d   1      -6.389  76.993 117.414  0.00  0.00     0.091 C 
ENDROOT
BRANCH   1   7
ATOM      7  O   LIG d   1      -7.411  74.825 116.904  0.00  0.00    -0.368 OA
BRANCH   7   8
ATOM      8  C   LIG d   1      -7.386  73.476 117.433  0.00  0.00     0.119 C 
BRANCH   8   9
ATOM      9  C   LIG d   1      -6.519  72.624 116.486  0.00  0.00     0.028 C 
ATOM     10  C   LIG d   1      -5.516  73.472 115.686  0.00  0.00     0.006 C 
ENDBRANCH   8   9
BRANCH   8  11
ATOM     11  C   LIG d   1      -8.777  72.837 117.394  0.00  0.00     0.028 C 
ATOM     12  C   LIG d   1      -8.742  71.357 116.982  0.00  0.00     0.006 C 
ENDBRANCH   8  11
ENDBRANCH   7   8
ENDBRANCH   1   7
BRANCH   6  13
ATOM     13  N   LIG d   1      -5.006  76.492 117.625  0.00  0.00    -0.311 N 
ATOM     14  C   LIG d   1      -3.995  76.760 116.801  0.00  0.00     0.210 C 
ATOM     15  C   LIG d   1      -2.656  76.128 117.193  0.00  0.00     0.109 C 
ATOM     16  O   LIG d   1      -4.073  77.487 115.799  0.00  0.00    -0.276 OA
ATOM     17  H   LIG d   1      -4.847  75.920 118.432  0.00  0.00     0.149 HD
ENDBRANCH   6  13
BRANCH   5  18
ATOM     18  N   LIG d   1      -5.818  79.437 117.648  0.00  0.00     0.381 N 
ATOM     19  H   LIG d   1      -5.967  79.555 116.666  0.00  0.00    -0.090 HD
ATOM     20  H   LIG d   1      -4.851  79.209 117.795  0.00  0.00    -0.090 HD
ATOM     21  H   LIG d   1      -6.046  80.279 118.130  0.00  0.00    -0.090 HD
ENDBRANCH   5  18
BRANCH   3  22
ATOM     22  C   LIG d   1     -10.269  78.049 118.746  0.00  0.00     0.382 C 
ATOM     23  O   LIG d   1     -11.158  77.173 118.876  0.00  0.00    -0.241 OA
ATOM     24  O   LIG d   1     -10.537  79.238 119.002  0.00  0.00    -0.241 OA
ENDBRANCH   3  22
TORSDOF 7
ENDMDL
MODEL 5
REMARK VINA RESULT:      -5.2      2.463      4.057
REMARK  7 active torsions:
REMARK  status: ('A' for Active; 'I' for Inactive)
REMARK    1  A    between atoms: C_2  and  C_3 
REMARK    2  A    between atoms: C_3  and  O_6 
REMARK    3  A    between atoms: C_3  and  C_4 
REMARK    4  A    between atoms: C_7  and  O_6 
REMARK    5  A    between atoms: C_9  and  C_10 
REMARK    6  A    between atoms: N_15  and  C_14 
REMARK    7  A    between atoms: N_20  and  C_19 
REMARK       I    between atoms: C_22  and  N_20 
ROOT
ATOM      1  C   LIG d   1      -7.686  76.422 116.949  0.00  0.00     0.161 C 
ATOM      2  C   LIG d   1      -7.257  75.801 115.764  0.00  0.00     0.016 C 
ATOM      3  C   LIG d   1      -5.914  75.815 115.321  0.00  0.00     0.038 C 
ATOM      4  C   LIG d   1      -4.876  76.324 116.115  0.00  0.00     0.028 C 
ATOM      5  C   LIG d   1      -5.332  77.408 117.086  0.00  0.00    -0.047 C 
ATOM      6  C   LIG d   1      -6.550  76.886 117.884  0.00  0.00     0.091 C 
ENDROOT
BRANCH   1   7
ATOM      7  O   LIG d   1      -8.592  75.551 117.656  0.00  0.00    -0.368 OA
BRANCH   7   8
ATOM      8  C   LIG d   1      -7.996  74.400 118.302  0.00  0.00     0.119 C 
BRANCH   8   9
ATOM      9  C   LIG d   1      -8.611  73.140 117.662  0.00  0.00     0.028 C 
ATOM     10  C   LIG d   1      -8.348  71.872 118.492  0.00  0.00     0.006 C 
ENDBRANCH   8   9
BRANCH   8  11
ATOM     11  C   LIG d   1      -8.379  74.331 119.783  0.00  0.00     0.028 C 
ATOM     12  C   LIG d   1      -9.480  75.334 120.161  0.00  0.00     0.006 C 
ENDBRANCH   8  11
ENDBRANCH   7   8
ENDBRANCH   1   7
BRANCH   6  13
ATOM     13  N   LIG d   1      -7.111  77.915 118.798  0.00  0.00    -0.311 N 
ATOM     14  C   LIG d   1      -6.952  77.887 120.120  0.00  0.00     0.210 C 
ATOM     15  C   LIG d   1      -7.630  79.033 120.877  0.00  0.00     0.109 C 
ATOM     16  O   LIG d   1      -6.287  77.039 120.734  0.00  0.00    -0.276 OA
ATOM     17  H   LIG d   1      -7.639  78.657 118.380  0.00  0.00     0.149 HD
ENDBRANCH   6  13
BRANCH   5  18
ATOM     18  N   LIG d   1      -4.183  77.750 117.944  0.00  0.00     0.381 N 
ATOM     19  H   LIG d   1      -3.557  76.972 117.999  0.00  0.00    -0.090 HD
ATOM     20  H   LIG d   1      -4.517  77.952 118.870  0.00  0.00    -0.090 HD
ATOM     21  H   LIG d   1      -3.706  78.544 117.575  0.00  0.00    -0.090 HD
ENDBRANCH   5  18
BRANCH   3  22
ATOM     22  C   LIG d   1      -5.605  75.350 114.052  0.00  0.00     0.382 C 
ATOM     23  O   LIG d   1      -5.118  74.203 113.905  0.00  0.00    -0.241 OA
ATOM     24  O   LIG d   1      -5.764  76.080 113.055  0.00  0.00    -0.241 OA
ENDBRANCH   3  22
TORSDOF 7
ENDMDL
MODEL 6
REMARK VINA RESULT:      -4.8      3.897      5.679
REMARK  7 active torsions:
REMARK  status: ('A' for Active; 'I' for Inactive)
REMARK    1  A    between atoms: C_2  and  C_3 
REMARK    2  A    between atoms: C_3  and  O_6 
REMARK    3  A    between atoms: C_3  and  C_4 
REMARK    4  A    between atoms: C_7  and  O_6 
REMARK    5  A    between atoms: C_9  and  C_10 
REMARK    6  A    between atoms: N_15  and  C_14 
REMARK    7  A    between atoms: N_20  and  C_19 
REMARK       I    between atoms: C_22  and  N_20 
ROOT
ATOM      1  C   LIG d   1      -3.003  75.551 117.143  0.00  0.00     0.161 C 
ATOM      2  C   LIG d   1      -3.446  76.759 116.577  0.00  0.00     0.016 C 
ATOM      3  C   LIG d   1      -2.607  77.626 115.840  0.00  0.00     0.038 C 
ATOM      4  C   LIG d   1      -1.297  77.269 115.488  0.00  0.00     0.028 C 
ATOM      5  C   LIG d   1      -0.653  76.290 116.464  0.00  0.00    -0.047 C 
ATOM      6  C   LIG d   1      -1.606  75.091 116.675  0.00  0.00     0.091 C 
ENDROOT
BRANCH   1   7
ATOM      7  O   LIG d   1      -3.977  74.515 116.907  0.00  0.00    -0.368 OA
BRANCH   7   8
ATOM      8  C   LIG d   1      -5.167  74.912 116.184  0.00  0.00     0.119 C 
BRANCH   8   9
ATOM      9  C   LIG d   1      -6.351  74.118 116.769  0.00  0.00     0.028 C 
ATOM     10  C   LIG d   1      -6.295  72.626 116.402  0.00  0.00     0.006 C 
ENDBRANCH   8   9
BRANCH   8  11
ATOM     11  C   LIG d   1      -5.089  74.497 114.712  0.00  0.00     0.028 C 
ATOM     12  C   LIG d   1      -5.676  75.554 113.763  0.00  0.00     0.006 C 
ENDBRANCH   8  11
ENDBRANCH   7   8
ENDBRANCH   1   7
BRANCH   6  13
ATOM     13  N   LIG d   1      -1.090  74.127 117.681  0.00  0.00    -0.311 N 
ATOM     14  C   LIG d   1      -0.414  73.025 117.360  0.00  0.00     0.210 C 
ATOM     15  C   LIG d   1       0.010  72.157 118.550  0.00  0.00     0.109 C 
ATOM     16  O   LIG d   1      -0.098  72.700 116.206  0.00  0.00    -0.276 OA
ATOM     17  H   LIG d   1      -1.274  74.329 118.644  0.00  0.00     0.149 HD
ENDBRANCH   6  13
BRANCH   5  18
ATOM     18  N   LIG d   1       0.654  75.897 115.903  0.00  0.00     0.381 N 
ATOM     19  H   LIG d   1       1.349  76.568 116.164  0.00  0.00    -0.090 HD
ATOM     20  H   LIG d   1       0.587  75.885 114.901  0.00  0.00    -0.090 HD
ATOM     21  H   LIG d   1       0.911  74.994 116.238  0.00  0.00    -0.090 HD
ENDBRANCH   5  18
BRANCH   3  22
ATOM     22  C   LIG d   1      -3.066  78.884 115.481  0.00  0.00     0.382 C 
ATOM     23  O   LIG d   1      -3.831  79.515 116.250  0.00  0.00    -0.241 OA
ATOM     24  O   LIG d   1      -2.760  79.377 114.379  0.00  0.00    -0.241 OA
ENDBRANCH   3  22
TORSDOF 7
ENDMDL
MODEL 7
REMARK VINA RESULT:      -4.8      3.854      5.817
REMARK  7 active torsions:
REMARK  status: ('A' for Active; 'I' for Inactive)
REMARK    1  A    between atoms: C_2  and  C_3 
REMARK    2  A    between atoms: C_3  and  O_6 
REMARK    3  A    between atoms: C_3  and  C_4 
REMARK    4  A    between atoms: C_7  and  O_6 
REMARK    5  A    between atoms: C_9  and  C_10 
REMARK    6  A    between atoms: N_15  and  C_14 
REMARK    7  A    between atoms: N_20  and  C_19 
REMARK       I    between atoms: C_22  and  N_20 
ROOT
ATOM      1  C   LIG d   1      -2.458  76.022 116.430  0.00  0.00     0.161 C 
ATOM      2  C   LIG d   1      -2.724  77.134 115.614  0.00  0.00     0.016 C 
ATOM      3  C   LIG d   1      -1.828  77.608 114.628  0.00  0.00     0.038 C 
ATOM      4  C   LIG d   1      -0.663  76.905 114.286  0.00  0.00     0.028 C 
ATOM      5  C   LIG d   1      -0.108  76.061 115.428  0.00  0.00    -0.047 C 
ATOM      6  C   LIG d   1      -1.242  75.177 115.996  0.00  0.00     0.091 C 
ENDROOT
BRANCH   1   7
ATOM      7  O   LIG d   1      -3.634  75.194 116.527  0.00  0.00    -0.368 OA
BRANCH   7   8
ATOM      8  C   LIG d   1      -4.746  75.565 115.676  0.00  0.00     0.119 C 
BRANCH   8   9
ATOM      9  C   LIG d   1      -5.991  75.701 116.573  0.00  0.00     0.028 C 
ATOM     10  C   LIG d   1      -7.246  76.102 115.780  0.00  0.00     0.006 C 
ENDBRANCH   8   9
BRANCH   8  11
ATOM     11  C   LIG d   1      -5.083  74.450 114.682  0.00  0.00     0.028 C 
ATOM     12  C   LIG d   1      -5.364  73.104 115.369  0.00  0.00     0.006 C 
ENDBRANCH   8  11
ENDBRANCH   7   8
ENDBRANCH   1   7
BRANCH   6  13
ATOM     13  N   LIG d   1      -0.805  74.380 117.172  0.00  0.00    -0.311 N 
ATOM     14  C   LIG d   1      -0.301  73.151 117.078  0.00  0.00     0.210 C 
ATOM     15  C   LIG d   1       0.068  72.500 118.415  0.00  0.00     0.109 C 
ATOM     16  O   LIG d   1      -0.094  72.551 116.013  0.00  0.00    -0.276 OA
ATOM     17  H   LIG d   1      -0.908  74.804 118.073  0.00  0.00     0.149 HD
ENDBRANCH   6  13
BRANCH   5  18
ATOM     18  N   LIG d   1       1.023  75.278 114.894  0.00  0.00     0.381 N 
ATOM     19  H   LIG d   1       1.729  75.181 115.596  0.00  0.00    -0.090 HD
ATOM     20  H   LIG d   1       1.420  75.771 114.114  0.00  0.00    -0.090 HD
ATOM     21  H   LIG d   1       0.708  74.379 114.603  0.00  0.00    -0.090 HD
ENDBRANCH   5  18
BRANCH   3  22
ATOM     22  C   LIG d   1      -2.075  78.819 114.000  0.00  0.00     0.382 C 
ATOM     23  O   LIG d   1      -1.307  79.224 113.095  0.00  0.00    -0.241 OA
ATOM     24  O   LIG d   1      -3.032  79.532 114.357  0.00  0.00    -0.241 OA
ENDBRANCH   3  22
TORSDOF 7
ENDMDL
MODEL 8
REMARK VINA RESULT:      -4.7      2.916      6.092
REMARK  7 active torsions:
REMARK  status: ('A' for Active; 'I' for Inactive)
REMARK    1  A    between atoms: C_2  and  C_3 
REMARK    2  A    between atoms: C_3  and  O_6 
REMARK    3  A    between atoms: C_3  and  C_4 
REMARK    4  A    between atoms: C_7  and  O_6 
REMARK    5  A    between atoms: C_9  and  C_10 
REMARK    6  A    between atoms: N_15  and  C_14 
REMARK    7  A    between atoms: N_20  and  C_19 
REMARK       I    between atoms: C_22  and  N_20 
ROOT
ATOM      1  C   LIG d   1      -7.875  77.360 118.211  0.00  0.00     0.161 C 
ATOM      2  C   LIG d   1      -8.989  78.192 118.417  0.00  0.00     0.016 C 
ATOM      3  C   LIG d   1      -8.922  79.604 118.385  0.00  0.00     0.038 C 
ATOM      4  C   LIG d   1      -7.759  80.282 117.993  0.00  0.00     0.028 C 
ATOM      5  C   LIG d   1      -6.479  79.500 118.268  0.00  0.00    -0.047 C 
ATOM      6  C   LIG d   1      -6.621  78.080 117.673  0.00  0.00     0.091 C 
ENDROOT
BRANCH   1   7
ATOM      7  O   LIG d   1      -8.236  76.266 117.345  0.00  0.00    -0.368 OA
BRANCH   7   8
ATOM      8  C   LIG d   1      -8.715  75.066 118.000  0.00  0.00     0.119 C 
BRANCH   8   9
ATOM      9  C   LIG d   1      -7.936  74.918 119.322  0.00  0.00     0.028 C 
ATOM     10  C   LIG d   1      -8.746  74.180 120.401  0.00  0.00     0.006 C 
ENDBRANCH   8   9
BRANCH   8  11
ATOM     11  C   LIG d   1      -8.374  73.814 117.187  0.00  0.00     0.028 C 
ATOM     12  C   LIG d   1      -6.871  73.684 116.894  0.00  0.00     0.006 C 
ENDBRANCH   8  11
ENDBRANCH   7   8
ENDBRANCH   1   7
BRANCH   6  13
ATOM     13  N   LIG d   1      -5.446  77.220 117.970  0.00  0.00    -0.311 N 
ATOM     14  C   LIG d   1      -4.654  76.710 117.029  0.00  0.00     0.210 C 
ATOM     15  C   LIG d   1      -3.511  75.834 117.551  0.00  0.00     0.109 C 
ATOM     16  O   LIG d   1      -4.770  76.926 115.813  0.00  0.00    -0.276 OA
ATOM     17  H   LIG d   1      -5.260  77.020 118.933  0.00  0.00     0.149 HD
ENDBRANCH   6  13
BRANCH   5  18
ATOM     18  N   LIG d   1      -5.357  80.261 117.686  0.00  0.00     0.381 N 
ATOM     19  H   LIG d   1      -5.684  80.812 116.918  0.00  0.00    -0.090 HD
ATOM     20  H   LIG d   1      -4.670  79.614 117.341  0.00  0.00    -0.090 HD
ATOM     21  H   LIG d   1      -4.951  80.851 118.378  0.00  0.00    -0.090 HD
ENDBRANCH   5  18
BRANCH   3  22
ATOM     22  C   LIG d   1     -10.018  80.353 118.787  0.00  0.00     0.382 C 
ATOM     23  O   LIG d   1     -10.675  81.006 117.941  0.00  0.00    -0.241 OA
ATOM     24  O   LIG d   1     -10.330  80.420 119.991  0.00  0.00    -0.241 OA
ENDBRANCH   3  22
TORSDOF 7
ENDMDL
MODEL 9
REMARK VINA RESULT:      -4.7      3.682      5.439
REMARK  7 active torsions:
REMARK  status: ('A' for Active; 'I' for Inactive)
REMARK    1  A    between atoms: C_2  and  C_3 
REMARK    2  A    between atoms: C_3  and  O_6 
REMARK    3  A    between atoms: C_3  and  C_4 
REMARK    4  A    between atoms: C_7  and  O_6 
REMARK    5  A    between atoms: C_9  and  C_10 
REMARK    6  A    between atoms: N_15  and  C_14 
REMARK    7  A    between atoms: N_20  and  C_19 
REMARK       I    between atoms: C_22  and  N_20 
ROOT
ATOM      1  C   LIG d   1      -2.667  74.080 116.195  0.00  0.00     0.161 C 
ATOM      2  C   LIG d   1      -1.729  75.007 115.710  0.00  0.00     0.016 C 
ATOM      3  C   LIG d   1      -2.064  76.070 114.840  0.00  0.00     0.038 C 
ATOM      4  C   LIG d   1      -3.395  76.369 114.513  0.00  0.00     0.028 C 
ATOM      5  C   LIG d   1      -4.321  75.158 114.573  0.00  0.00    -0.047 C 
ATOM      6  C   LIG d   1      -4.141  74.456 115.939  0.00  0.00     0.091 C 
ENDROOT
BRANCH   1   7
ATOM      7  O   LIG d   1      -2.445  73.850 117.600  0.00  0.00    -0.368 OA
BRANCH   7   8
ATOM      8  C   LIG d   1      -1.076  73.976 118.059  0.00  0.00     0.119 C 
BRANCH   8   9
ATOM      9  C   LIG d   1      -0.493  72.554 118.171  0.00  0.00     0.028 C 
ATOM     10  C   LIG d   1       0.667  72.473 119.178  0.00  0.00     0.006 C 
ENDBRANCH   8   9
BRANCH   8  11
ATOM     11  C   LIG d   1      -1.014  74.553 119.476  0.00  0.00     0.028 C 
ATOM     12  C   LIG d   1      -1.276  76.067 119.515  0.00  0.00     0.006 C 
ENDBRANCH   8  11
ENDBRANCH   7   8
ENDBRANCH   1   7
BRANCH   6  13
ATOM     13  N   LIG d   1      -4.948  73.213 116.048  0.00  0.00    -0.311 N 
ATOM     14  C   LIG d   1      -6.194  73.187 116.518  0.00  0.00     0.210 C 
ATOM     15  C   LIG d   1      -6.839  71.798 116.564  0.00  0.00     0.109 C 
ATOM     16  O   LIG d   1      -6.838  74.186 116.870  0.00  0.00    -0.276 OA
ATOM     17  H   LIG d   1      -4.514  72.360 115.754  0.00  0.00     0.149 HD
ENDBRANCH   6  13
BRANCH   5  18
ATOM     18  N   LIG d   1      -5.697  75.638 114.347  0.00  0.00     0.381 N 
ATOM     19  H   LIG d   1      -6.343  74.882 114.463  0.00  0.00    -0.090 HD
ATOM     20  H   LIG d   1      -5.773  75.974 113.403  0.00  0.00    -0.090 HD
ATOM     21  H   LIG d   1      -5.913  76.370 114.987  0.00  0.00    -0.090 HD
ENDBRANCH   5  18
BRANCH   3  22
ATOM     22  C   LIG d   1      -1.058  76.822 114.254  0.00  0.00     0.382 C 
ATOM     23  O   LIG d   1      -0.084  77.211 114.943  0.00  0.00    -0.241 OA
ATOM     24  O   LIG d   1      -1.132  77.153 113.056  0.00  0.00    -0.241 OA
ENDBRANCH   3  22
TORSDOF 7
ENDMDL
