MODEL 1
REMARK VINA RESULT:      -5.8      0.000      0.000
REMARK  7 active torsions:
REMARK  status: ('A' for Active; 'I' for Inactive)
REMARK    1  A    between atoms: C_2  and  C_3 
REMARK    2  A    between atoms: C_3  and  O_6 
REMARK    3  A    between atoms: C_3  and  C_4 
REMARK    4  A    between atoms: C_7  and  O_6 
REMARK    5  A    between atoms: C_9  and  C_10 
REMARK    6  A    between atoms: N_15  and  C_14 
REMARK    7  A    between atoms: N_20  and  C_19 
REMARK       I    between atoms: C_22  and  N_20 
ROOT
ATOM      1  C   LIG d   1      -3.450  90.825 117.315  0.00  0.00     0.161 C 
ATOM      2  C   LIG d   1      -3.935  90.194 116.157  0.00  0.00     0.016 C 
ATOM      3  C   LIG d   1      -5.152  90.548 115.530  0.00  0.00     0.038 C 
ATOM      4  C   LIG d   1      -5.897  91.666 115.935  0.00  0.00     0.028 C 
ATOM      5  C   LIG d   1      -5.706  92.021 117.405  0.00  0.00    -0.047 C 
ATOM      6  C   LIG d   1      -4.193  92.119 117.706  0.00  0.00     0.091 C 
ENDROOT
BRANCH   1   7
ATOM      7  O   LIG d   1      -2.038  91.080 117.177  0.00  0.00    -0.368 OA
BRANCH   7   8
ATOM      8  C   LIG d   1      -1.152  90.074 117.726  0.00  0.00     0.119 C 
BRANCH   8   9
ATOM      9  C   LIG d   1      -1.924  89.332 118.834  0.00  0.00     0.028 C 
ATOM     10  C   LIG d   1      -1.377  89.640 120.238  0.00  0.00     0.006 C 
ENDBRANCH   8   9
BRANCH   8  11
ATOM     11  C   LIG d   1       0.050  90.713 118.427  0.00  0.00     0.028 C 
ATOM     12  C   LIG d   1       0.289  92.167 117.993  0.00  0.00     0.006 C 
ENDBRANCH   8  11
ENDBRANCH   7   8
ENDBRANCH   1   7
BRANCH   6  13
ATOM     13  N   LIG d   1      -3.916  92.381 119.142  0.00  0.00    -0.311 N 
ATOM     14  C   LIG d   1      -3.109  93.350 119.569  0.00  0.00     0.210 C 
ATOM     15  C   LIG d   1      -2.946  93.434 121.090  0.00  0.00     0.109 C 
ATOM     16  O   LIG d   1      -2.538  94.169 118.833  0.00  0.00    -0.276 OA
ATOM     17  H   LIG d   1      -4.364  91.783 119.809  0.00  0.00     0.149 HD
ENDBRANCH   6  13
BRANCH   5  18
ATOM     18  N   LIG d   1      -6.429  93.282 117.657  0.00  0.00     0.381 N 
ATOM     19  H   LIG d   1      -5.876  94.056 117.348  0.00  0.00    -0.090 HD
ATOM     20  H   LIG d   1      -6.582  93.378 118.645  0.00  0.00    -0.090 HD
ATOM     21  H   LIG d   1      -7.303  93.276 117.177  0.00  0.00    -0.090 HD
ENDBRANCH   5  18
BRANCH   3  22
ATOM     22  C   LIG d   1      -5.656  89.755 114.511  0.00  0.00     0.382 C 
ATOM     23  O   LIG d   1      -6.880  89.788 114.237  0.00  0.00    -0.241 OA
ATOM     24  O   LIG d   1      -4.910  88.974 113.890  0.00  0.00    -0.241 OA
ENDBRANCH   3  22
TORSDOF 7
ENDMDL
MODEL 2
REMARK VINA RESULT:      -5.7     13.952     15.830
REMARK  7 active torsions:
REMARK  status: ('A' for Active; 'I' for Inactive)
REMARK    1  A    between atoms: C_2  and  C_3 
REMARK    2  A    between atoms: C_3  and  O_6 
REMARK    3  A    between atoms: C_3  and  C_4 
REMARK    4  A    between atoms: C_7  and  O_6 
REMARK    5  A    between atoms: C_9  and  C_10 
REMARK    6  A    between atoms: N_15  and  C_14 
REMARK    7  A    between atoms: N_20  and  C_19 
REMARK       I    between atoms: C_22  and  N_20 
ROOT
ATOM      1  C   LIG d   1      -5.280  76.199 116.342  0.00  0.00     0.161 C 
ATOM      2  C   LIG d   1      -4.146  75.456 115.975  0.00  0.00     0.016 C 
ATOM      3  C   LIG d   1      -2.825  75.837 116.304  0.00  0.00     0.038 C 
ATOM      4  C   LIG d   1      -2.557  76.916 117.160  0.00  0.00     0.028 C 
ATOM      5  C   LIG d   1      -3.640  77.989 117.140  0.00  0.00    -0.047 C 
ATOM      6  C   LIG d   1      -5.014  77.319 117.370  0.00  0.00     0.091 C 
ENDROOT
BRANCH   1   7
ATOM      7  O   LIG d   1      -6.311  75.313 116.822  0.00  0.00    -0.368 OA
BRANCH   7   8
ATOM      8  C   LIG d   1      -7.313  74.917 115.854  0.00  0.00     0.119 C 
BRANCH   8   9
ATOM      9  C   LIG d   1      -8.593  75.719 116.158  0.00  0.00     0.028 C 
ATOM     10  C   LIG d   1      -9.827  74.815 116.322  0.00  0.00     0.006 C 
ENDBRANCH   8   9
BRANCH   8  11
ATOM     11  C   LIG d   1      -7.705  73.447 116.026  0.00  0.00     0.028 C 
ATOM     12  C   LIG d   1      -6.571  72.480 115.650  0.00  0.00     0.006 C 
ENDBRANCH   8  11
ENDBRANCH   7   8
ENDBRANCH   1   7
BRANCH   6  13
ATOM     13  N   LIG d   1      -6.138  78.286 117.283  0.00  0.00    -0.311 N 
ATOM     14  C   LIG d   1      -6.665  78.897 118.343  0.00  0.00     0.210 C 
ATOM     15  C   LIG d   1      -7.830  79.842 118.033  0.00  0.00     0.109 C 
ATOM     16  O   LIG d   1      -6.256  78.771 119.507  0.00  0.00    -0.276 OA
ATOM     17  H   LIG d   1      -6.511  78.472 116.372  0.00  0.00     0.149 HD
ENDBRANCH   6  13
BRANCH   5  18
ATOM     18  N   LIG d   1      -3.301  78.983 118.176  0.00  0.00     0.381 N 
ATOM     19  H   LIG d   1      -2.616  79.621 117.822  0.00  0.00    -0.090 HD
ATOM     20  H   LIG d   1      -2.908  78.506 118.968  0.00  0.00    -0.090 HD
ATOM     21  H   LIG d   1      -4.119  79.481 118.451  0.00  0.00    -0.090 HD
ENDBRANCH   5  18
BRANCH   3  22
ATOM     22  C   LIG d   1      -1.754  75.159 115.743  0.00  0.00     0.382 C 
ATOM     23  O   LIG d   1      -1.526  75.255 114.513  0.00  0.00    -0.241 OA
ATOM     24  O   LIG d   1      -1.039  74.417 116.443  0.00  0.00    -0.241 OA
ENDBRANCH   3  22
TORSDOF 7
ENDMDL
MODEL 3
REMARK VINA RESULT:      -5.4      1.647      5.003
REMARK  7 active torsions:
REMARK  status: ('A' for Active; 'I' for Inactive)
REMARK    1  A    between atoms: C_2  and  C_3 
REMARK    2  A    between atoms: C_3  and  O_6 
REMARK    3  A    between atoms: C_3  and  C_4 
REMARK    4  A    between atoms: C_7  and  O_6 
REMARK    5  A    between atoms: C_9  and  C_10 
REMARK    6  A    between atoms: N_15  and  C_14 
REMARK    7  A    between atoms: N_20  and  C_19 
REMARK       I    between atoms: C_22  and  N_20 
ROOT
ATOM      1  C   LIG d   1      -3.762  92.416 117.301  0.00  0.00     0.161 C 
ATOM      2  C   LIG d   1      -3.053  93.031 118.346  0.00  0.00     0.016 C 
ATOM      3  C   LIG d   1      -3.666  93.503 119.530  0.00  0.00     0.038 C 
ATOM      4  C   LIG d   1      -5.017  93.254 119.816  0.00  0.00     0.028 C 
ATOM      5  C   LIG d   1      -5.878  93.084 118.569  0.00  0.00    -0.047 C 
ATOM      6  C   LIG d   1      -5.218  92.036 117.643  0.00  0.00     0.091 C 
ENDROOT
BRANCH   1   7
ATOM      7  O   LIG d   1      -3.040  91.260 116.834  0.00  0.00    -0.368 OA
BRANCH   7   8
ATOM      8  C   LIG d   1      -1.972  90.786 117.692  0.00  0.00     0.119 C 
BRANCH   8   9
ATOM      9  C   LIG d   1      -0.726  90.581 116.809  0.00  0.00     0.028 C 
ATOM     10  C   LIG d   1       0.320  91.693 117.003  0.00  0.00     0.006 C 
ENDBRANCH   8   9
BRANCH   8  11
ATOM     11  C   LIG d   1      -2.292  89.404 118.269  0.00  0.00     0.028 C 
ATOM     12  C   LIG d   1      -1.920  89.278 119.754  0.00  0.00     0.006 C 
ENDBRANCH   8  11
ENDBRANCH   7   8
ENDBRANCH   1   7
BRANCH   6  13
ATOM     13  N   LIG d   1      -5.953  91.870 116.361  0.00  0.00    -0.311 N 
ATOM     14  C   LIG d   1      -6.248  90.684 115.834  0.00  0.00     0.210 C 
ATOM     15  C   LIG d   1      -6.993  90.738 114.496  0.00  0.00     0.109 C 
ATOM     16  O   LIG d   1      -5.993  89.591 116.363  0.00  0.00    -0.276 OA
ATOM     17  H   LIG d   1      -6.225  92.705 115.881  0.00  0.00     0.149 HD
ENDBRANCH   6  13
BRANCH   5  18
ATOM     18  N   LIG d   1      -7.230  92.694 119.011  0.00  0.00     0.381 N 
ATOM     19  H   LIG d   1      -7.338  91.702 118.938  0.00  0.00    -0.090 HD
ATOM     20  H   LIG d   1      -7.907  93.130 118.410  0.00  0.00    -0.090 HD
ATOM     21  H   LIG d   1      -7.377  92.983 119.954  0.00  0.00    -0.090 HD
ENDBRANCH   5  18
BRANCH   3  22
ATOM     22  C   LIG d   1      -2.933  94.268 120.425  0.00  0.00     0.382 C 
ATOM     23  O   LIG d   1      -2.928  95.518 120.324  0.00  0.00    -0.241 OA
ATOM     24  O   LIG d   1      -2.242  93.721 121.305  0.00  0.00    -0.241 OA
ENDBRANCH   3  22
TORSDOF 7
ENDMDL
MODEL 4
REMARK VINA RESULT:      -5.2     12.990     14.949
REMARK  7 active torsions:
REMARK  status: ('A' for Active; 'I' for Inactive)
REMARK    1  A    between atoms: C_2  and  C_3 
REMARK    2  A    between atoms: C_3  and  O_6 
REMARK    3  A    between atoms: C_3  and  C_4 
REMARK    4  A    between atoms: C_7  and  O_6 
REMARK    5  A    between atoms: C_9  and  C_10 
REMARK    6  A    between atoms: N_15  and  C_14 
REMARK    7  A    between atoms: N_20  and  C_19 
REMARK       I    between atoms: C_22  and  N_20 
ROOT
ATOM      1  C   LIG d   1      -5.776  77.253 117.193  0.00  0.00     0.161 C 
ATOM      2  C   LIG d   1      -6.755  78.194 117.552  0.00  0.00     0.016 C 
ATOM      3  C   LIG d   1      -6.455  79.520 117.939  0.00  0.00     0.038 C 
ATOM      4  C   LIG d   1      -5.157  80.044 117.846  0.00  0.00     0.028 C 
ATOM      5  C   LIG d   1      -4.067  78.986 117.971  0.00  0.00    -0.047 C 
ATOM      6  C   LIG d   1      -4.364  77.839 116.979  0.00  0.00     0.091 C 
ENDROOT
BRANCH   1   7
ATOM      7  O   LIG d   1      -6.200  76.529 116.021  0.00  0.00    -0.368 OA
BRANCH   7   8
ATOM      8  C   LIG d   1      -6.270  75.088 116.154  0.00  0.00     0.119 C 
BRANCH   8   9
ATOM      9  C   LIG d   1      -5.557  74.476 114.932  0.00  0.00     0.028 C 
ATOM     10  C   LIG d   1      -5.331  75.502 113.810  0.00  0.00     0.006 C 
ENDBRANCH   8   9
BRANCH   8  11
ATOM     11  C   LIG d   1      -7.716  74.589 116.070  0.00  0.00     0.028 C 
ATOM     12  C   LIG d   1      -7.817  73.056 116.053  0.00  0.00     0.006 C 
ENDBRANCH   8  11
ENDBRANCH   7   8
ENDBRANCH   1   7
BRANCH   6  13
ATOM     13  N   LIG d   1      -3.391  76.721 117.096  0.00  0.00    -0.311 N 
ATOM     14  C   LIG d   1      -2.535  76.390 116.131  0.00  0.00     0.210 C 
ATOM     15  C   LIG d   1      -1.633  75.194 116.449  0.00  0.00     0.109 C 
ATOM     16  O   LIG d   1      -2.415  76.994 115.054  0.00  0.00    -0.276 OA
ATOM     17  H   LIG d   1      -3.399  76.197 117.949  0.00  0.00     0.149 HD
ENDBRANCH   6  13
BRANCH   5  18
ATOM     18  N   LIG d   1      -2.772  79.647 117.719  0.00  0.00     0.381 N 
ATOM     19  H   LIG d   1      -2.927  80.582 117.400  0.00  0.00    -0.090 HD
ATOM     20  H   LIG d   1      -2.285  79.144 116.999  0.00  0.00    -0.090 HD
ATOM     21  H   LIG d   1      -2.227  79.659 118.553  0.00  0.00    -0.090 HD
ENDBRANCH   5  18
BRANCH   3  22
ATOM     22  C   LIG d   1      -7.455  80.326 118.462  0.00  0.00     0.382 C 
ATOM     23  O   LIG d   1      -7.709  80.292 119.690  0.00  0.00    -0.241 OA
ATOM     24  O   LIG d   1      -8.135  81.055 117.715  0.00  0.00    -0.241 OA
ENDBRANCH   3  22
TORSDOF 7
ENDMDL
MODEL 5
REMARK VINA RESULT:      -5.2      5.599      8.091
REMARK  7 active torsions:
REMARK  status: ('A' for Active; 'I' for Inactive)
REMARK    1  A    between atoms: C_2  and  C_3 
REMARK    2  A    between atoms: C_3  and  O_6 
REMARK    3  A    between atoms: C_3  and  C_4 
REMARK    4  A    between atoms: C_7  and  O_6 
REMARK    5  A    between atoms: C_9  and  C_10 
REMARK    6  A    between atoms: N_15  and  C_14 
REMARK    7  A    between atoms: N_20  and  C_19 
REMARK       I    between atoms: C_22  and  N_20 
ROOT
ATOM      1  C   LIG d   1       2.154  88.980 115.673  0.00  0.00     0.161 C 
ATOM      2  C   LIG d   1       1.009  89.254 116.439  0.00  0.00     0.016 C 
ATOM      3  C   LIG d   1       0.924  90.327 117.357  0.00  0.00     0.038 C 
ATOM      4  C   LIG d   1       1.934  91.295 117.459  0.00  0.00     0.028 C 
ATOM      5  C   LIG d   1       3.314  90.774 117.074  0.00  0.00    -0.047 C 
ATOM      6  C   LIG d   1       3.224  90.091 115.690  0.00  0.00     0.091 C 
ENDROOT
BRANCH   1   7
ATOM      7  O   LIG d   1       1.773  88.672 114.318  0.00  0.00    -0.368 OA
BRANCH   7   8
ATOM      8  C   LIG d   1       1.940  87.293 113.906  0.00  0.00     0.119 C 
BRANCH   8   9
ATOM      9  C   LIG d   1       0.540  86.652 113.854  0.00  0.00     0.028 C 
ATOM     10  C   LIG d   1       0.599  85.127 113.666  0.00  0.00     0.006 C 
ENDBRANCH   8   9
BRANCH   8  11
ATOM     11  C   LIG d   1       2.716  86.489 114.953  0.00  0.00     0.028 C 
ATOM     12  C   LIG d   1       4.061  85.965 114.426  0.00  0.00     0.006 C 
ENDBRANCH   8  11
ENDBRANCH   7   8
ENDBRANCH   1   7
BRANCH   6  13
ATOM     13  N   LIG d   1       4.514  89.479 115.275  0.00  0.00    -0.311 N 
ATOM     14  C   LIG d   1       5.025  89.606 114.052  0.00  0.00     0.210 C 
ATOM     15  C   LIG d   1       6.355  88.879 113.828  0.00  0.00     0.109 C 
ATOM     16  O   LIG d   1       4.519  90.278 113.140  0.00  0.00    -0.276 OA
ATOM     17  H   LIG d   1       5.006  88.943 115.962  0.00  0.00     0.149 HD
ENDBRANCH   6  13
BRANCH   5  18
ATOM     18  N   LIG d   1       4.244  91.919 117.094  0.00  0.00     0.381 N 
ATOM     19  H   LIG d   1       5.142  91.632 116.758  0.00  0.00    -0.090 HD
ATOM     20  H   LIG d   1       4.348  92.237 118.041  0.00  0.00    -0.090 HD
ATOM     21  H   LIG d   1       3.890  92.657 116.525  0.00  0.00    -0.090 HD
ENDBRANCH   5  18
BRANCH   3  22
ATOM     22  C   LIG d   1      -0.163  90.416 118.212  0.00  0.00     0.382 C 
ATOM     23  O   LIG d   1      -0.293  89.591 119.149  0.00  0.00    -0.241 OA
ATOM     24  O   LIG d   1      -1.039  91.282 118.032  0.00  0.00    -0.241 OA
ENDBRANCH   3  22
TORSDOF 7
ENDMDL
MODEL 6
REMARK VINA RESULT:      -5.0     10.648     12.137
REMARK  7 active torsions:
REMARK  status: ('A' for Active; 'I' for Inactive)
REMARK    1  A    between atoms: C_2  and  C_3 
REMARK    2  A    between atoms: C_3  and  O_6 
REMARK    3  A    between atoms: C_3  and  C_4 
REMARK    4  A    between atoms: C_7  and  O_6 
REMARK    5  A    between atoms: C_9  and  C_10 
REMARK    6  A    between atoms: N_15  and  C_14 
REMARK    7  A    between atoms: N_20  and  C_19 
REMARK       I    between atoms: C_22  and  N_20 
ROOT
ATOM      1  C   LIG d   1      -6.118  79.520 118.049  0.00  0.00     0.161 C 
ATOM      2  C   LIG d   1      -7.497  79.465 117.789  0.00  0.00     0.016 C 
ATOM      3  C   LIG d   1      -8.345  80.594 117.847  0.00  0.00     0.038 C 
ATOM      4  C   LIG d   1      -7.842  81.892 118.022  0.00  0.00     0.028 C 
ATOM      5  C   LIG d   1      -6.524  81.932 118.789  0.00  0.00    -0.047 C 
ATOM      6  C   LIG d   1      -5.532  80.945 118.132  0.00  0.00     0.091 C 
ENDROOT
BRANCH   1   7
ATOM      7  O   LIG d   1      -5.404  78.741 117.067  0.00  0.00    -0.368 OA
BRANCH   7   8
ATOM      8  C   LIG d   1      -4.940  77.439 117.501  0.00  0.00     0.119 C 
BRANCH   8   9
ATOM      9  C   LIG d   1      -3.401  77.445 117.416  0.00  0.00     0.028 C 
ATOM     10  C   LIG d   1      -2.883  78.245 116.210  0.00  0.00     0.006 C 
ENDBRANCH   8   9
BRANCH   8  11
ATOM     11  C   LIG d   1      -5.395  76.337 116.541  0.00  0.00     0.028 C 
ATOM     12  C   LIG d   1      -6.838  75.876 116.803  0.00  0.00     0.006 C 
ENDBRANCH   8  11
ENDBRANCH   7   8
ENDBRANCH   1   7
BRANCH   6  13
ATOM     13  N   LIG d   1      -4.245  80.859 118.871  0.00  0.00    -0.311 N 
ATOM     14  C   LIG d   1      -3.079  81.250 118.360  0.00  0.00     0.210 C 
ATOM     15  C   LIG d   1      -1.871  81.057 119.282  0.00  0.00     0.109 C 
ATOM     16  O   LIG d   1      -2.934  81.769 117.242  0.00  0.00    -0.276 OA
ATOM     17  H   LIG d   1      -4.275  80.480 119.797  0.00  0.00     0.149 HD
ENDBRANCH   6  13
BRANCH   5  18
ATOM     18  N   LIG d   1      -6.044  83.326 118.778  0.00  0.00     0.381 N 
ATOM     19  H   LIG d   1      -5.379  83.451 118.041  0.00  0.00    -0.090 HD
ATOM     20  H   LIG d   1      -5.586  83.519 119.652  0.00  0.00    -0.090 HD
ATOM     21  H   LIG d   1      -6.811  83.950 118.652  0.00  0.00    -0.090 HD
ENDBRANCH   5  18
BRANCH   3  22
ATOM     22  C   LIG d   1      -9.720  80.426 117.769  0.00  0.00     0.382 C 
ATOM     23  O   LIG d   1     -10.435  81.332 117.276  0.00  0.00    -0.241 OA
ATOM     24  O   LIG d   1     -10.258  79.400 118.226  0.00  0.00    -0.241 OA
ENDBRANCH   3  22
TORSDOF 7
ENDMDL
MODEL 7
REMARK VINA RESULT:      -5.0      2.915      4.899
REMARK  7 active torsions:
REMARK  status: ('A' for Active; 'I' for Inactive)
REMARK    1  A    between atoms: C_2  and  C_3 
REMARK    2  A    between atoms: C_3  and  O_6 
REMARK    3  A    between atoms: C_3  and  C_4 
REMARK    4  A    between atoms: C_7  and  O_6 
REMARK    5  A    between atoms: C_9  and  C_10 
REMARK    6  A    between atoms: N_15  and  C_14 
REMARK    7  A    between atoms: N_20  and  C_19 
REMARK       I    between atoms: C_22  and  N_20 
ROOT
ATOM      1  C   LIG d   1      -5.040  92.589 118.591  0.00  0.00     0.161 C 
ATOM      2  C   LIG d   1      -6.392  92.844 118.876  0.00  0.00     0.016 C 
ATOM      3  C   LIG d   1      -6.834  93.969 119.610  0.00  0.00     0.038 C 
ATOM      4  C   LIG d   1      -5.960  95.001 119.982  0.00  0.00     0.028 C 
ATOM      5  C   LIG d   1      -4.517  94.541 120.156  0.00  0.00    -0.047 C 
ATOM      6  C   LIG d   1      -4.083  93.762 118.893  0.00  0.00     0.091 C 
ENDROOT
BRANCH   1   7
ATOM      7  O   LIG d   1      -4.900  92.169 117.220  0.00  0.00    -0.368 OA
BRANCH   7   8
ATOM      8  C   LIG d   1      -4.859  90.738 116.993  0.00  0.00     0.119 C 
BRANCH   8   9
ATOM      9  C   LIG d   1      -3.429  90.381 116.545  0.00  0.00     0.028 C 
ATOM     10  C   LIG d   1      -2.594  89.766 117.681  0.00  0.00     0.006 C 
ENDBRANCH   8   9
BRANCH   8  11
ATOM     11  C   LIG d   1      -5.763  90.334 115.824  0.00  0.00     0.028 C 
ATOM     12  C   LIG d   1      -6.291  91.541 115.033  0.00  0.00     0.006 C 
ENDBRANCH   8  11
ENDBRANCH   7   8
ENDBRANCH   1   7
BRANCH   6  13
ATOM     13  N   LIG d   1      -2.711  93.203 119.015  0.00  0.00    -0.311 N 
ATOM     14  C   LIG d   1      -1.711  93.530 118.200  0.00  0.00     0.210 C 
ATOM     15  C   LIG d   1      -0.383  92.824 118.489  0.00  0.00     0.109 C 
ATOM     16  O   LIG d   1      -1.789  94.363 117.284  0.00  0.00    -0.276 OA
ATOM     17  H   LIG d   1      -2.551  92.543 119.751  0.00  0.00     0.149 HD
ENDBRANCH   6  13
BRANCH   5  18
ATOM     18  N   LIG d   1      -3.694  95.739 120.408  0.00  0.00     0.381 N 
ATOM     19  H   LIG d   1      -2.827  95.472 120.831  0.00  0.00    -0.090 HD
ATOM     20  H   LIG d   1      -4.183  96.341 121.045  0.00  0.00    -0.090 HD
ATOM     21  H   LIG d   1      -3.520  96.219 119.552  0.00  0.00    -0.090 HD
ENDBRANCH   5  18
BRANCH   3  22
ATOM     22  C   LIG d   1      -8.158  94.049 120.013  0.00  0.00     0.382 C 
ATOM     23  O   LIG d   1      -8.865  93.013 120.051  0.00  0.00    -0.241 OA
ATOM     24  O   LIG d   1      -8.666  95.150 120.297  0.00  0.00    -0.241 OA
ENDBRANCH   3  22
TORSDOF 7
ENDMDL
MODEL 8
REMARK VINA RESULT:      -4.9     13.311     15.274
REMARK  7 active torsions:
REMARK  status: ('A' for Active; 'I' for Inactive)
REMARK    1  A    between atoms: C_2  and  C_3 
REMARK    2  A    between atoms: C_3  and  O_6 
REMARK    3  A    between atoms: C_3  and  C_4 
REMARK    4  A    between atoms: C_7  and  O_6 
REMARK    5  A    between atoms: C_9  and  C_10 
REMARK    6  A    between atoms: N_15  and  C_14 
REMARK    7  A    between atoms: N_20  and  C_19 
REMARK       I    between atoms: C_22  and  N_20 
ROOT
ATOM      1  C   LIG d   1      -3.605  77.270 116.128  0.00  0.00     0.161 C 
ATOM      2  C   LIG d   1      -2.714  76.201 115.939  0.00  0.00     0.016 C 
ATOM      3  C   LIG d   1      -1.724  75.838 116.881  0.00  0.00     0.038 C 
ATOM      4  C   LIG d   1      -1.657  76.429 118.152  0.00  0.00     0.028 C 
ATOM      5  C   LIG d   1      -2.211  77.849 118.189  0.00  0.00    -0.047 C 
ATOM      6  C   LIG d   1      -3.621  77.855 117.555  0.00  0.00     0.091 C 
ENDROOT
BRANCH   1   7
ATOM      7  O   LIG d   1      -4.934  76.873 115.735  0.00  0.00    -0.368 OA
BRANCH   7   8
ATOM      8  C   LIG d   1      -5.320  75.518 116.072  0.00  0.00     0.119 C 
BRANCH   8   9
ATOM      9  C   LIG d   1      -5.800  74.837 114.775  0.00  0.00     0.028 C 
ATOM     10  C   LIG d   1      -5.569  75.713 113.532  0.00  0.00     0.006 C 
ENDBRANCH   8   9
BRANCH   8  11
ATOM     11  C   LIG d   1      -6.530  75.500 117.010  0.00  0.00     0.028 C 
ATOM     12  C   LIG d   1      -7.862  75.703 116.270  0.00  0.00     0.006 C 
ENDBRANCH   8  11
ENDBRANCH   7   8
ENDBRANCH   1   7
BRANCH   6  13
ATOM     13  N   LIG d   1      -4.200  79.221 117.475  0.00  0.00    -0.311 N 
ATOM     14  C   LIG d   1      -5.443  79.514 117.855  0.00  0.00     0.210 C 
ATOM     15  C   LIG d   1      -5.847  80.980 117.669  0.00  0.00     0.109 C 
ATOM     16  O   LIG d   1      -6.237  78.706 118.357  0.00  0.00    -0.276 OA
ATOM     17  H   LIG d   1      -3.613  79.945 117.108  0.00  0.00     0.149 HD
ENDBRANCH   6  13
BRANCH   5  18
ATOM     18  N   LIG d   1      -2.207  78.293 119.596  0.00  0.00     0.381 N 
ATOM     19  H   LIG d   1      -1.789  77.589 120.171  0.00  0.00    -0.090 HD
ATOM     20  H   LIG d   1      -3.156  78.424 119.897  0.00  0.00    -0.090 HD
ATOM     21  H   LIG d   1      -1.701  79.146 119.683  0.00  0.00    -0.090 HD
ENDBRANCH   5  18
BRANCH   3  22
ATOM     22  C   LIG d   1      -0.761  74.900 116.540  0.00  0.00     0.382 C 
ATOM     23  O   LIG d   1      -0.374  74.803 115.350  0.00  0.00    -0.241 OA
ATOM     24  O   LIG d   1      -0.307  74.119 117.398  0.00  0.00    -0.241 OA
ENDBRANCH   3  22
TORSDOF 7
ENDMDL
MODEL 9
REMARK VINA RESULT:      -4.8     17.762     19.945
REMARK  7 active torsions:
REMARK  status: ('A' for Active; 'I' for Inactive)
REMARK    1  A    between atoms: C_2  and  C_3 
REMARK    2  A    between atoms: C_3  and  O_6 
REMARK    3  A    between atoms: C_3  and  C_4 
REMARK    4  A    between atoms: C_7  and  O_6 
REMARK    5  A    between atoms: C_9  and  C_10 
REMARK    6  A    between atoms: N_15  and  C_14 
REMARK    7  A    between atoms: N_20  and  C_19 
REMARK       I    between atoms: C_22  and  N_20 
ROOT
ATOM      1  C   LIG d   1      10.760  79.130 114.687  0.00  0.00     0.161 C 
ATOM      2  C   LIG d   1       9.402  79.163 115.045  0.00  0.00     0.016 C 
ATOM      3  C   LIG d   1       8.656  78.009 115.375  0.00  0.00     0.038 C 
ATOM      4  C   LIG d   1       9.261  76.751 115.518  0.00  0.00     0.028 C 
ATOM      5  C   LIG d   1      10.521  76.586 114.676  0.00  0.00    -0.047 C 
ATOM      6  C   LIG d   1      11.464  77.781 114.945  0.00  0.00     0.091 C 
ENDROOT
BRANCH   1   7
ATOM      7  O   LIG d   1      11.466  80.198 115.349  0.00  0.00    -0.368 OA
BRANCH   7   8
ATOM      8  C   LIG d   1      12.002  81.236 114.491  0.00  0.00     0.119 C 
BRANCH   8   9
ATOM      9  C   LIG d   1      11.206  81.203 113.172  0.00  0.00     0.028 C 
ATOM     10  C   LIG d   1      10.213  82.372 113.056  0.00  0.00     0.006 C 
ENDBRANCH   8   9
BRANCH   8  11
ATOM     11  C   LIG d   1      13.452  80.939 114.097  0.00  0.00     0.028 C 
ATOM     12  C   LIG d   1      14.447  81.219 115.233  0.00  0.00     0.006 C 
ENDBRANCH   8  11
ENDBRANCH   7   8
ENDBRANCH   1   7
BRANCH   6  13
ATOM     13  N   LIG d   1      12.685  77.742 114.098  0.00  0.00    -0.311 N 
ATOM     14  C   LIG d   1      13.827  77.175 114.484  0.00  0.00     0.210 C 
ATOM     15  C   LIG d   1      14.969  77.263 113.467  0.00  0.00     0.109 C 
ATOM     16  O   LIG d   1      13.993  76.580 115.560  0.00  0.00    -0.276 OA
ATOM     17  H   LIG d   1      12.629  78.174 113.197  0.00  0.00     0.149 HD
ENDBRANCH   6  13
BRANCH   5  18
ATOM     18  N   LIG d   1      11.123  75.285 115.025  0.00  0.00     0.381 N 
ATOM     19  H   LIG d   1      11.750  74.996 114.301  0.00  0.00    -0.090 HD
ATOM     20  H   LIG d   1      10.393  74.599 115.103  0.00  0.00    -0.090 HD
ATOM     21  H   LIG d   1      11.614  75.357 115.889  0.00  0.00    -0.090 HD
ENDBRANCH   5  18
BRANCH   3  22
ATOM     22  C   LIG d   1       7.281  78.100 115.528  0.00  0.00     0.382 C 
ATOM     23  O   LIG d   1       6.703  77.429 116.417  0.00  0.00    -0.241 OA
ATOM     24  O   LIG d   1       6.605  78.810 114.759  0.00  0.00    -0.241 OA
ENDBRANCH   3  22
TORSDOF 7
ENDMDL
