MODEL 1
REMARK VINA RESULT:      -5.6      0.000      0.000
REMARK  7 active torsions:
REMARK  status: ('A' for Active; 'I' for Inactive)
REMARK    1  A    between atoms: C_2  and  C_3 
REMARK    2  A    between atoms: C_3  and  O_6 
REMARK    3  A    between atoms: C_3  and  C_4 
REMARK    4  A    between atoms: C_7  and  O_6 
REMARK    5  A    between atoms: C_9  and  C_10 
REMARK    6  A    between atoms: N_15  and  C_14 
REMARK    7  A    between atoms: N_20  and  C_19 
REMARK       I    between atoms: C_22  and  N_20 
ROOT
ATOM      1  C   LIG d   1      -6.744  76.760 117.131  0.00  0.00     0.161 C 
ATOM      2  C   LIG d   1      -8.014  77.063 117.649  0.00  0.00     0.016 C 
ATOM      3  C   LIG d   1      -8.403  78.363 118.046  0.00  0.00     0.038 C 
ATOM      4  C   LIG d   1      -7.593  79.484 117.811  0.00  0.00     0.028 C 
ATOM      5  C   LIG d   1      -6.105  79.154 117.755  0.00  0.00    -0.047 C 
ATOM      6  C   LIG d   1      -5.886  77.989 116.763  0.00  0.00     0.091 C 
ENDROOT
BRANCH   1   7
ATOM      7  O   LIG d   1      -6.876  75.883 115.995  0.00  0.00    -0.368 OA
BRANCH   7   8
ATOM      8  C   LIG d   1      -6.362  74.539 116.165  0.00  0.00     0.119 C 
BRANCH   8   9
ATOM      9  C   LIG d   1      -5.754  74.102 114.819  0.00  0.00     0.028 C 
ATOM     10  C   LIG d   1      -5.436  75.296 113.903  0.00  0.00     0.006 C 
ENDBRANCH   8   9
BRANCH   8  11
ATOM     11  C   LIG d   1      -7.492  73.542 116.442  0.00  0.00     0.028 C 
ATOM     12  C   LIG d   1      -7.153  72.115 115.983  0.00  0.00     0.006 C 
ENDBRANCH   8  11
ENDBRANCH   7   8
ENDBRANCH   1   7
BRANCH   6  13
ATOM     13  N   LIG d   1      -4.468  77.547 116.711  0.00  0.00    -0.311 N 
ATOM     14  C   LIG d   1      -3.568  78.068 115.879  0.00  0.00     0.210 C 
ATOM     15  C   LIG d   1      -2.167  77.455 115.975  0.00  0.00     0.109 C 
ATOM     16  O   LIG d   1      -3.788  79.002 115.093  0.00  0.00    -0.276 OA
ATOM     17  H   LIG d   1      -4.195  76.815 117.337  0.00  0.00     0.149 HD
ENDBRANCH   6  13
BRANCH   5  18
ATOM     18  N   LIG d   1      -5.390  80.385 117.367  0.00  0.00     0.381 N 
ATOM     19  H   LIG d   1      -5.774  80.746 116.516  0.00  0.00    -0.090 HD
ATOM     20  H   LIG d   1      -4.423  80.163 117.207  0.00  0.00    -0.090 HD
ATOM     21  H   LIG d   1      -5.467  81.066 118.090  0.00  0.00    -0.090 HD
ENDBRANCH   5  18
BRANCH   3  22
ATOM     22  C   LIG d   1      -9.599  78.546 118.724  0.00  0.00     0.382 C 
ATOM     23  O   LIG d   1      -9.678  79.405 119.635  0.00  0.00    -0.241 OA
ATOM     24  O   LIG d   1     -10.586  77.831 118.467  0.00  0.00    -0.241 OA
ENDBRANCH   3  22
TORSDOF 7
ENDMDL
MODEL 2
REMARK VINA RESULT:      -5.0      2.179      5.344
REMARK  7 active torsions:
REMARK  status: ('A' for Active; 'I' for Inactive)
REMARK    1  A    between atoms: C_2  and  C_3 
REMARK    2  A    between atoms: C_3  and  O_6 
REMARK    3  A    between atoms: C_3  and  C_4 
REMARK    4  A    between atoms: C_7  and  O_6 
REMARK    5  A    between atoms: C_9  and  C_10 
REMARK    6  A    between atoms: N_15  and  C_14 
REMARK    7  A    between atoms: N_20  and  C_19 
REMARK       I    between atoms: C_22  and  N_20 
ROOT
ATOM      1  C   LIG d   1      -4.946  76.670 115.362  0.00  0.00     0.161 C 
ATOM      2  C   LIG d   1      -3.797  75.984 114.932  0.00  0.00     0.016 C 
ATOM      3  C   LIG d   1      -2.544  76.085 115.578  0.00  0.00     0.038 C 
ATOM      4  C   LIG d   1      -2.389  76.764 116.796  0.00  0.00     0.028 C 
ATOM      5  C   LIG d   1      -3.403  77.885 116.997  0.00  0.00    -0.047 C 
ATOM      6  C   LIG d   1      -4.824  77.327 116.753  0.00  0.00     0.091 C 
ENDROOT
BRANCH   1   7
ATOM      7  O   LIG d   1      -6.085  75.787 115.324  0.00  0.00    -0.368 OA
BRANCH   7   8
ATOM      8  C   LIG d   1      -6.037  74.645 116.214  0.00  0.00     0.119 C 
BRANCH   8   9
ATOM      9  C   LIG d   1      -6.212  73.379 115.354  0.00  0.00     0.028 C 
ATOM     10  C   LIG d   1      -6.930  72.250 116.111  0.00  0.00     0.006 C 
ENDBRANCH   8   9
BRANCH   8  11
ATOM     11  C   LIG d   1      -7.222  74.645 117.184  0.00  0.00     0.028 C 
ATOM     12  C   LIG d   1      -8.307  75.663 116.799  0.00  0.00     0.006 C 
ENDBRANCH   8  11
ENDBRANCH   7   8
ENDBRANCH   1   7
BRANCH   6  13
ATOM     13  N   LIG d   1      -5.869  78.379 116.846  0.00  0.00    -0.311 N 
ATOM     14  C   LIG d   1      -6.541  78.648 117.965  0.00  0.00     0.210 C 
ATOM     15  C   LIG d   1      -7.590  79.757 117.838  0.00  0.00     0.109 C 
ATOM     16  O   LIG d   1      -6.345  78.095 119.058  0.00  0.00    -0.276 OA
ATOM     17  H   LIG d   1      -6.070  78.898 116.014  0.00  0.00     0.149 HD
ENDBRANCH   6  13
BRANCH   5  18
ATOM     18  N   LIG d   1      -3.216  78.416 118.360  0.00  0.00     0.381 N 
ATOM     19  H   LIG d   1      -3.588  79.343 118.417  0.00  0.00    -0.090 HD
ATOM     20  H   LIG d   1      -2.232  78.459 118.561  0.00  0.00    -0.090 HD
ATOM     21  H   LIG d   1      -3.672  77.826 119.021  0.00  0.00    -0.090 HD
ENDBRANCH   5  18
BRANCH   3  22
ATOM     22  C   LIG d   1      -1.418  75.534 114.984  0.00  0.00     0.382 C 
ATOM     23  O   LIG d   1      -0.705  74.724 115.623  0.00  0.00    -0.241 OA
ATOM     24  O   LIG d   1      -1.083  75.871 113.833  0.00  0.00    -0.241 OA
ENDBRANCH   3  22
TORSDOF 7
ENDMDL
MODEL 3
REMARK VINA RESULT:      -4.9      2.452      3.307
REMARK  7 active torsions:
REMARK  status: ('A' for Active; 'I' for Inactive)
REMARK    1  A    between atoms: C_2  and  C_3 
REMARK    2  A    between atoms: C_3  and  O_6 
REMARK    3  A    between atoms: C_3  and  C_4 
REMARK    4  A    between atoms: C_7  and  O_6 
REMARK    5  A    between atoms: C_9  and  C_10 
REMARK    6  A    between atoms: N_15  and  C_14 
REMARK    7  A    between atoms: N_20  and  C_19 
REMARK       I    between atoms: C_22  and  N_20 
ROOT
ATOM      1  C   LIG d   1      -4.309  76.655 116.960  0.00  0.00     0.161 C 
ATOM      2  C   LIG d   1      -5.249  77.584 117.436  0.00  0.00     0.016 C 
ATOM      3  C   LIG d   1      -5.159  78.974 117.198  0.00  0.00     0.038 C 
ATOM      4  C   LIG d   1      -4.196  79.518 116.335  0.00  0.00     0.028 C 
ATOM      5  C   LIG d   1      -2.926  78.680 116.239  0.00  0.00    -0.047 C 
ATOM      6  C   LIG d   1      -3.313  77.217 115.923  0.00  0.00     0.091 C 
ENDROOT
BRANCH   1   7
ATOM      7  O   LIG d   1      -4.988  75.500 116.428  0.00  0.00    -0.368 OA
BRANCH   7   8
ATOM      8  C   LIG d   1      -6.272  75.747 115.805  0.00  0.00     0.119 C 
BRANCH   8   9
ATOM      9  C   LIG d   1      -7.219  74.608 116.229  0.00  0.00     0.028 C 
ATOM     10  C   LIG d   1      -6.485  73.483 116.977  0.00  0.00     0.006 C 
ENDBRANCH   8   9
BRANCH   8  11
ATOM     11  C   LIG d   1      -6.179  75.651 114.279  0.00  0.00     0.028 C 
ATOM     12  C   LIG d   1      -5.061  74.708 113.809  0.00  0.00     0.006 C 
ENDBRANCH   8  11
ENDBRANCH   7   8
ENDBRANCH   1   7
BRANCH   6  13
ATOM     13  N   LIG d   1      -2.135  76.312 115.895  0.00  0.00    -0.311 N 
ATOM     14  C   LIG d   1      -1.485  75.988 114.778  0.00  0.00     0.210 C 
ATOM     15  C   LIG d   1      -0.310  75.025 114.970  0.00  0.00     0.109 C 
ATOM     16  O   LIG d   1      -1.751  76.433 113.651  0.00  0.00    -0.276 OA
ATOM     17  H   LIG d   1      -1.831  75.931 116.770  0.00  0.00     0.149 HD
ENDBRANCH   6  13
BRANCH   5  18
ATOM     18  N   LIG d   1      -2.068  79.287 115.204  0.00  0.00     0.381 N 
ATOM     19  H   LIG d   1      -2.360  78.978 114.298  0.00  0.00    -0.090 HD
ATOM     20  H   LIG d   1      -1.120  78.986 115.350  0.00  0.00    -0.090 HD
ATOM     21  H   LIG d   1      -2.121  80.280 115.257  0.00  0.00    -0.090 HD
ENDBRANCH   5  18
BRANCH   3  22
ATOM     22  C   LIG d   1      -6.014  79.842 117.861  0.00  0.00     0.382 C 
ATOM     23  O   LIG d   1      -5.698  80.297 118.986  0.00  0.00    -0.241 OA
ATOM     24  O   LIG d   1      -7.118  80.140 117.367  0.00  0.00    -0.241 OA
ENDBRANCH   3  22
TORSDOF 7
ENDMDL
MODEL 4
REMARK VINA RESULT:      -4.8      1.641      2.300
REMARK  7 active torsions:
REMARK  status: ('A' for Active; 'I' for Inactive)
REMARK    1  A    between atoms: C_2  and  C_3 
REMARK    2  A    between atoms: C_3  and  O_6 
REMARK    3  A    between atoms: C_3  and  C_4 
REMARK    4  A    between atoms: C_7  and  O_6 
REMARK    5  A    between atoms: C_9  and  C_10 
REMARK    6  A    between atoms: N_15  and  C_14 
REMARK    7  A    between atoms: N_20  and  C_19 
REMARK       I    between atoms: C_22  and  N_20 
ROOT
ATOM      1  C   LIG d   1      -6.111  78.056 118.388  0.00  0.00     0.161 C 
ATOM      2  C   LIG d   1      -7.466  77.838 118.685  0.00  0.00     0.016 C 
ATOM      3  C   LIG d   1      -8.462  78.833 118.555  0.00  0.00     0.038 C 
ATOM      4  C   LIG d   1      -8.192  80.080 117.971  0.00  0.00     0.028 C 
ATOM      5  C   LIG d   1      -6.740  80.519 118.125  0.00  0.00    -0.047 C 
ATOM      6  C   LIG d   1      -5.816  79.376 117.645  0.00  0.00     0.091 C 
ENDROOT
BRANCH   1   7
ATOM      7  O   LIG d   1      -5.586  76.937 117.648  0.00  0.00    -0.368 OA
BRANCH   7   8
ATOM      8  C   LIG d   1      -6.324  76.554 116.462  0.00  0.00     0.119 C 
BRANCH   8   9
ATOM      9  C   LIG d   1      -6.609  75.043 116.561  0.00  0.00     0.028 C 
ATOM     10  C   LIG d   1      -8.091  74.741 116.836  0.00  0.00     0.006 C 
ENDBRANCH   8   9
BRANCH   8  11
ATOM     11  C   LIG d   1      -5.477  76.725 115.198  0.00  0.00     0.028 C 
ATOM     12  C   LIG d   1      -6.047  75.964 113.990  0.00  0.00     0.006 C 
ENDBRANCH   8  11
ENDBRANCH   7   8
ENDBRANCH   1   7
BRANCH   6  13
ATOM     13  N   LIG d   1      -4.377  79.691 117.839  0.00  0.00    -0.311 N 
ATOM     14  C   LIG d   1      -3.586  80.139 116.866  0.00  0.00     0.210 C 
ATOM     15  C   LIG d   1      -2.130  80.381 117.276  0.00  0.00     0.109 C 
ATOM     16  O   LIG d   1      -3.960  80.390 115.710  0.00  0.00    -0.276 OA
ATOM     17  H   LIG d   1      -3.998  79.546 118.755  0.00  0.00     0.149 HD
ENDBRANCH   6  13
BRANCH   5  18
ATOM     18  N   LIG d   1      -6.567  81.765 117.354  0.00  0.00     0.381 N 
ATOM     19  H   LIG d   1      -5.707  82.206 117.611  0.00  0.00    -0.090 HD
ATOM     20  H   LIG d   1      -7.321  82.391 117.575  0.00  0.00    -0.090 HD
ATOM     21  H   LIG d   1      -6.567  81.565 116.378  0.00  0.00    -0.090 HD
ENDBRANCH   5  18
BRANCH   3  22
ATOM     22  C   LIG d   1      -9.736  78.599 119.048  0.00  0.00     0.382 C 
ATOM     23  O   LIG d   1     -10.050  79.006 120.193  0.00  0.00    -0.241 OA
ATOM     24  O   LIG d   1     -10.562  77.947 118.382  0.00  0.00    -0.241 OA
ENDBRANCH   3  22
TORSDOF 7
ENDMDL
MODEL 5
REMARK VINA RESULT:      -4.7     12.545     14.943
REMARK  7 active torsions:
REMARK  status: ('A' for Active; 'I' for Inactive)
REMARK    1  A    between atoms: C_2  and  C_3 
REMARK    2  A    between atoms: C_3  and  O_6 
REMARK    3  A    between atoms: C_3  and  C_4 
REMARK    4  A    between atoms: C_7  and  O_6 
REMARK    5  A    between atoms: C_9  and  C_10 
REMARK    6  A    between atoms: N_15  and  C_14 
REMARK    7  A    between atoms: N_20  and  C_19 
REMARK       I    between atoms: C_22  and  N_20 
ROOT
ATOM      1  C   LIG d   1     -15.224  65.297 118.553  0.00  0.00     0.161 C 
ATOM      2  C   LIG d   1     -15.636  66.587 118.181  0.00  0.00     0.016 C 
ATOM      3  C   LIG d   1     -15.031  67.768 118.670  0.00  0.00     0.038 C 
ATOM      4  C   LIG d   1     -13.867  67.736 119.452  0.00  0.00     0.028 C 
ATOM      5  C   LIG d   1     -13.717  66.453 120.262  0.00  0.00    -0.047 C 
ATOM      6  C   LIG d   1     -13.885  65.240 119.318  0.00  0.00     0.091 C 
ENDROOT
BRANCH   1   7
ATOM      7  O   LIG d   1     -15.173  64.446 117.390  0.00  0.00    -0.368 OA
BRANCH   7   8
ATOM      8  C   LIG d   1     -16.327  63.598 117.170  0.00  0.00     0.119 C 
BRANCH   8   9
ATOM      9  C   LIG d   1     -15.868  62.138 117.347  0.00  0.00     0.028 C 
ATOM     10  C   LIG d   1     -16.685  61.158 116.488  0.00  0.00     0.006 C 
ENDBRANCH   8   9
BRANCH   8  11
ATOM     11  C   LIG d   1     -16.821  63.695 115.724  0.00  0.00     0.028 C 
ATOM     12  C   LIG d   1     -16.236  64.902 114.973  0.00  0.00     0.006 C 
ENDBRANCH   8  11
ENDBRANCH   7   8
ENDBRANCH   1   7
BRANCH   6  13
ATOM     13  N   LIG d   1     -13.837  63.945 120.045  0.00  0.00    -0.311 N 
ATOM     14  C   LIG d   1     -13.081  62.917 119.662  0.00  0.00     0.210 C 
ATOM     15  C   LIG d   1     -13.195  61.668 120.541  0.00  0.00     0.109 C 
ATOM     16  O   LIG d   1     -12.302  62.933 118.697  0.00  0.00    -0.276 OA
ATOM     17  H   LIG d   1     -14.415  63.856 120.858  0.00  0.00     0.149 HD
ENDBRANCH   6  13
BRANCH   5  18
ATOM     18  N   LIG d   1     -12.398  66.493 120.922  0.00  0.00     0.381 N 
ATOM     19  H   LIG d   1     -12.090  67.441 121.004  0.00  0.00    -0.090 HD
ATOM     20  H   LIG d   1     -11.736  65.994 120.355  0.00  0.00    -0.090 HD
ATOM     21  H   LIG d   1     -12.455  66.075 121.824  0.00  0.00    -0.090 HD
ENDBRANCH   5  18
BRANCH   3  22
ATOM     22  C   LIG d   1     -15.614  68.998 118.409  0.00  0.00     0.382 C 
ATOM     23  O   LIG d   1     -16.206  69.619 119.325  0.00  0.00    -0.241 OA
ATOM     24  O   LIG d   1     -15.596  69.475 117.258  0.00  0.00    -0.241 OA
ENDBRANCH   3  22
TORSDOF 7
ENDMDL
MODEL 6
REMARK VINA RESULT:      -4.6      2.232      4.330
REMARK  7 active torsions:
REMARK  status: ('A' for Active; 'I' for Inactive)
REMARK    1  A    between atoms: C_2  and  C_3 
REMARK    2  A    between atoms: C_3  and  O_6 
REMARK    3  A    between atoms: C_3  and  C_4 
REMARK    4  A    between atoms: C_7  and  O_6 
REMARK    5  A    between atoms: C_9  and  C_10 
REMARK    6  A    between atoms: N_15  and  C_14 
REMARK    7  A    between atoms: N_20  and  C_19 
REMARK       I    between atoms: C_22  and  N_20 
ROOT
ATOM      1  C   LIG d   1      -5.627  77.053 116.831  0.00  0.00     0.161 C 
ATOM      2  C   LIG d   1      -6.103  78.252 117.387  0.00  0.00     0.016 C 
ATOM      3  C   LIG d   1      -7.448  78.448 117.778  0.00  0.00     0.038 C 
ATOM      4  C   LIG d   1      -8.380  77.401 117.778  0.00  0.00     0.028 C 
ATOM      5  C   LIG d   1      -8.072  76.315 116.752  0.00  0.00    -0.047 C 
ATOM      6  C   LIG d   1      -6.604  75.863 116.927  0.00  0.00     0.091 C 
ENDROOT
BRANCH   1   7
ATOM      7  O   LIG d   1      -4.359  76.709 117.424  0.00  0.00    -0.368 OA
BRANCH   7   8
ATOM      8  C   LIG d   1      -3.268  76.469 116.501  0.00  0.00     0.119 C 
BRANCH   8   9
ATOM      9  C   LIG d   1      -1.973  76.957 117.178  0.00  0.00     0.028 C 
ATOM     10  C   LIG d   1      -2.155  77.203 118.685  0.00  0.00     0.006 C 
ENDBRANCH   8   9
BRANCH   8  11
ATOM     11  C   LIG d   1      -3.410  77.320 115.236  0.00  0.00     0.028 C 
ATOM     12  C   LIG d   1      -3.523  76.474 113.958  0.00  0.00     0.006 C 
ENDBRANCH   8  11
ENDBRANCH   7   8
ENDBRANCH   1   7
BRANCH   6  13
ATOM     13  N   LIG d   1      -6.194  74.862 115.907  0.00  0.00    -0.311 N 
ATOM     14  C   LIG d   1      -6.193  73.548 116.129  0.00  0.00     0.210 C 
ATOM     15  C   LIG d   1      -5.716  72.694 114.950  0.00  0.00     0.109 C 
ATOM     16  O   LIG d   1      -6.573  73.008 117.178  0.00  0.00    -0.276 OA
ATOM     17  H   LIG d   1      -5.901  75.212 115.016  0.00  0.00     0.149 HD
ENDBRANCH   6  13
BRANCH   5  18
ATOM     18  N   LIG d   1      -9.041  75.222 116.955  0.00  0.00     0.381 N 
ATOM     19  H   LIG d   1      -9.964  75.599 117.037  0.00  0.00    -0.090 HD
ATOM     20  H   LIG d   1      -8.819  74.744 117.811  0.00  0.00    -0.090 HD
ATOM     21  H   LIG d   1      -9.002  74.585 116.190  0.00  0.00    -0.090 HD
ENDBRANCH   5  18
BRANCH   3  22
ATOM     22  C   LIG d   1      -7.881  79.716 118.136  0.00  0.00     0.382 C 
ATOM     23  O   LIG d   1      -7.775  80.667 117.325  0.00  0.00    -0.241 OA
ATOM     24  O   LIG d   1      -8.335  79.929 119.276  0.00  0.00    -0.241 OA
ENDBRANCH   3  22
TORSDOF 7
ENDMDL
MODEL 7
REMARK VINA RESULT:      -4.6      4.349      6.571
REMARK  7 active torsions:
REMARK  status: ('A' for Active; 'I' for Inactive)
REMARK    1  A    between atoms: C_2  and  C_3 
REMARK    2  A    between atoms: C_3  and  O_6 
REMARK    3  A    between atoms: C_3  and  C_4 
REMARK    4  A    between atoms: C_7  and  O_6 
REMARK    5  A    between atoms: C_9  and  C_10 
REMARK    6  A    between atoms: N_15  and  C_14 
REMARK    7  A    between atoms: N_20  and  C_19 
REMARK       I    between atoms: C_22  and  N_20 
ROOT
ATOM      1  C   LIG d   1      -1.482  77.444 114.844  0.00  0.00     0.161 C 
ATOM      2  C   LIG d   1      -2.718  77.157 114.241  0.00  0.00     0.016 C 
ATOM      3  C   LIG d   1      -3.494  76.018 114.559  0.00  0.00     0.038 C 
ATOM      4  C   LIG d   1      -3.155  75.163 115.618  0.00  0.00     0.028 C 
ATOM      5  C   LIG d   1      -1.660  75.131 115.917  0.00  0.00    -0.047 C 
ATOM      6  C   LIG d   1      -1.150  76.582 116.080  0.00  0.00     0.091 C 
ENDROOT
BRANCH   1   7
ATOM      7  O   LIG d   1      -1.415  78.844 115.178  0.00  0.00    -0.368 OA
BRANCH   7   8
ATOM      8  C   LIG d   1      -2.684  79.510 115.391  0.00  0.00     0.119 C 
BRANCH   8   9
ATOM      9  C   LIG d   1      -2.603  80.890 114.709  0.00  0.00     0.028 C 
ATOM     10  C   LIG d   1      -2.505  80.783 113.178  0.00  0.00     0.006 C 
ENDBRANCH   8   9
BRANCH   8  11
ATOM     11  C   LIG d   1      -2.915  79.805 116.876  0.00  0.00     0.028 C 
ATOM     12  C   LIG d   1      -3.822  78.767 117.556  0.00  0.00     0.006 C 
ENDBRANCH   8  11
ENDBRANCH   7   8
ENDBRANCH   1   7
BRANCH   6  13
ATOM     13  N   LIG d   1       0.319  76.646 116.291  0.00  0.00    -0.311 N 
ATOM     14  C   LIG d   1       0.887  76.666 117.496  0.00  0.00     0.210 C 
ATOM     15  C   LIG d   1       2.416  76.754 117.490  0.00  0.00     0.109 C 
ATOM     16  O   LIG d   1       0.270  76.587 118.570  0.00  0.00    -0.276 OA
ATOM     17  H   LIG d   1       0.897  76.681 115.474  0.00  0.00     0.149 HD
ENDBRANCH   6  13
BRANCH   5  18
ATOM     18  N   LIG d   1      -1.464  74.310 117.127  0.00  0.00     0.381 N 
ATOM     19  H   LIG d   1      -1.705  74.842 117.939  0.00  0.00    -0.090 HD
ATOM     20  H   LIG d   1      -0.495  74.055 117.193  0.00  0.00    -0.090 HD
ATOM     21  H   LIG d   1      -2.029  73.491 117.078  0.00  0.00    -0.090 HD
ENDBRANCH   5  18
BRANCH   3  22
ATOM     22  C   LIG d   1      -4.602  75.704 113.787  0.00  0.00     0.382 C 
ATOM     23  O   LIG d   1      -5.438  76.594 113.499  0.00  0.00    -0.241 OA
ATOM     24  O   LIG d   1      -4.799  74.532 113.413  0.00  0.00    -0.241 OA
ENDBRANCH   3  22
TORSDOF 7
ENDMDL
MODEL 8
REMARK VINA RESULT:      -4.6      2.217      4.829
REMARK  7 active torsions:
REMARK  status: ('A' for Active; 'I' for Inactive)
REMARK    1  A    between atoms: C_2  and  C_3 
REMARK    2  A    between atoms: C_3  and  O_6 
REMARK    3  A    between atoms: C_3  and  C_4 
REMARK    4  A    between atoms: C_7  and  O_6 
REMARK    5  A    between atoms: C_9  and  C_10 
REMARK    6  A    between atoms: N_15  and  C_14 
REMARK    7  A    between atoms: N_20  and  C_19 
REMARK       I    between atoms: C_22  and  N_20 
ROOT
ATOM      1  C   LIG d   1      -4.776  76.101 116.433  0.00  0.00     0.161 C 
ATOM      2  C   LIG d   1      -5.174  74.841 115.956  0.00  0.00     0.016 C 
ATOM      3  C   LIG d   1      -6.489  74.338 116.090  0.00  0.00     0.038 C 
ATOM      4  C   LIG d   1      -7.539  75.129 116.579  0.00  0.00     0.028 C 
ATOM      5  C   LIG d   1      -7.078  76.224 117.535  0.00  0.00    -0.047 C 
ATOM      6  C   LIG d   1      -5.934  77.022 116.869  0.00  0.00     0.091 C 
ENDROOT
BRANCH   1   7
ATOM      7  O   LIG d   1      -3.956  76.759 115.447  0.00  0.00    -0.368 OA
BRANCH   7   8
ATOM      8  C   LIG d   1      -2.578  77.002 115.824  0.00  0.00     0.119 C 
BRANCH   8   9
ATOM      9  C   LIG d   1      -1.692  76.575 114.638  0.00  0.00     0.028 C 
ATOM     10  C   LIG d   1      -1.952  77.418 113.378  0.00  0.00     0.006 C 
ENDBRANCH   8   9
BRANCH   8  11
ATOM     11  C   LIG d   1      -2.153  76.106 116.991  0.00  0.00     0.028 C 
ATOM     12  C   LIG d   1      -1.327  74.892 116.540  0.00  0.00     0.006 C 
ENDBRANCH   8  11
ENDBRANCH   7   8
ENDBRANCH   1   7
BRANCH   6  13
ATOM     13  N   LIG d   1      -5.368  78.060 117.770  0.00  0.00    -0.311 N 
ATOM     14  C   LIG d   1      -5.821  79.311 117.823  0.00  0.00     0.210 C 
ATOM     15  C   LIG d   1      -5.083  80.225 118.806  0.00  0.00     0.109 C 
ATOM     16  O   LIG d   1      -6.785  79.743 117.173  0.00  0.00    -0.276 OA
ATOM     17  H   LIG d   1      -4.603  77.787 118.356  0.00  0.00     0.149 HD
ENDBRANCH   6  13
BRANCH   5  18
ATOM     18  N   LIG d   1      -8.252  77.057 117.859  0.00  0.00     0.381 N 
ATOM     19  H   LIG d   1      -9.062  76.477 117.954  0.00  0.00    -0.090 HD
ATOM     20  H   LIG d   1      -8.412  77.700 117.104  0.00  0.00    -0.090 HD
ATOM     21  H   LIG d   1      -8.092  77.559 118.704  0.00  0.00    -0.090 HD
ENDBRANCH   5  18
BRANCH   3  22
ATOM     22  C   LIG d   1      -6.755  73.015 115.770  0.00  0.00     0.382 C 
ATOM     23  O   LIG d   1      -7.781  72.454 116.224  0.00  0.00    -0.241 OA
ATOM     24  O   LIG d   1      -5.959  72.363 115.068  0.00  0.00    -0.241 OA
ENDBRANCH   3  22
TORSDOF 7
ENDMDL
MODEL 9
REMARK VINA RESULT:      -4.5      4.977      7.243
REMARK  7 active torsions:
REMARK  status: ('A' for Active; 'I' for Inactive)
REMARK    1  A    between atoms: C_2  and  C_3 
REMARK    2  A    between atoms: C_3  and  O_6 
REMARK    3  A    between atoms: C_3  and  C_4 
REMARK    4  A    between atoms: C_7  and  O_6 
REMARK    5  A    between atoms: C_9  and  C_10 
REMARK    6  A    between atoms: N_15  and  C_14 
REMARK    7  A    between atoms: N_20  and  C_19 
REMARK       I    between atoms: C_22  and  N_20 
ROOT
ATOM      1  C   LIG d   1      -1.431  77.373 114.790  0.00  0.00     0.161 C 
ATOM      2  C   LIG d   1      -2.675  77.089 114.201  0.00  0.00     0.016 C 
ATOM      3  C   LIG d   1      -3.464  75.970 114.553  0.00  0.00     0.038 C 
ATOM      4  C   LIG d   1      -3.132  75.137 115.632  0.00  0.00     0.028 C 
ATOM      5  C   LIG d   1      -1.636  75.092 115.923  0.00  0.00    -0.047 C 
ATOM      6  C   LIG d   1      -1.105  76.538 116.046  0.00  0.00     0.091 C 
ENDROOT
BRANCH   1   7
ATOM      7  O   LIG d   1      -1.342  78.781 115.087  0.00  0.00    -0.368 OA
BRANCH   7   8
ATOM      8  C   LIG d   1      -1.025  79.649 113.971  0.00  0.00     0.119 C 
BRANCH   8   9
ATOM      9  C   LIG d   1       0.219  80.470 114.363  0.00  0.00     0.028 C 
ATOM     10  C   LIG d   1       0.573  80.325 115.853  0.00  0.00     0.006 C 
ENDBRANCH   8   9
BRANCH   8  11
ATOM     11  C   LIG d   1      -2.133  80.679 113.734  0.00  0.00     0.028 C 
ATOM     12  C   LIG d   1      -1.620  81.960 113.056  0.00  0.00     0.006 C 
ENDBRANCH   8  11
ENDBRANCH   7   8
ENDBRANCH   1   7
BRANCH   6  13
ATOM     13  N   LIG d   1       0.367  76.586 116.248  0.00  0.00    -0.311 N 
ATOM     14  C   LIG d   1       0.941  76.645 117.448  0.00  0.00     0.210 C 
ATOM     15  C   LIG d   1       2.472  76.708 117.430  0.00  0.00     0.109 C 
ATOM     16  O   LIG d   1       0.330  76.619 118.526  0.00  0.00    -0.276 OA
ATOM     17  H   LIG d   1       0.940  76.580 115.427  0.00  0.00     0.149 HD
ENDBRANCH   6  13
BRANCH   5  18
ATOM     18  N   LIG d   1      -1.445  74.299 117.152  0.00  0.00     0.381 N 
ATOM     19  H   LIG d   1      -1.589  74.879 117.955  0.00  0.00    -0.090 HD
ATOM     20  H   LIG d   1      -0.500  73.958 117.176  0.00  0.00    -0.090 HD
ATOM     21  H   LIG d   1      -2.082  73.534 117.167  0.00  0.00    -0.090 HD
ENDBRANCH   5  18
BRANCH   3  22
ATOM     22  C   LIG d   1      -4.581  75.652 113.795  0.00  0.00     0.382 C 
ATOM     23  O   LIG d   1      -4.780  74.465 113.439  0.00  0.00    -0.241 OA
ATOM     24  O   LIG d   1      -5.369  76.543 113.426  0.00  0.00    -0.241 OA
ENDBRANCH   3  22
TORSDOF 7
ENDMDL
