MODEL 1
REMARK VINA RESULT:      -5.4      0.000      0.000
REMARK  7 active torsions:
REMARK  status: ('A' for Active; 'I' for Inactive)
REMARK    1  A    between atoms: C_2  and  C_3 
REMARK    2  A    between atoms: C_3  and  O_6 
REMARK    3  A    between atoms: C_3  and  C_4 
REMARK    4  A    between atoms: C_7  and  O_6 
REMARK    5  A    between atoms: C_9  and  C_10 
REMARK    6  A    between atoms: N_15  and  C_14 
REMARK    7  A    between atoms: N_20  and  C_19 
REMARK       I    between atoms: C_22  and  N_20 
ROOT
ATOM      1  C   LIG d   1      -6.205  93.241 118.728  0.00  0.00     0.161 C 
ATOM      2  C   LIG d   1      -7.101  92.501 117.939  0.00  0.00     0.016 C 
ATOM      3  C   LIG d   1      -6.704  91.425 117.112  0.00  0.00     0.038 C 
ATOM      4  C   LIG d   1      -5.397  90.917 117.133  0.00  0.00     0.028 C 
ATOM      5  C   LIG d   1      -4.351  91.952 117.532  0.00  0.00    -0.047 C 
ATOM      6  C   LIG d   1      -4.793  92.631 118.848  0.00  0.00     0.091 C 
ENDROOT
BRANCH   1   7
ATOM      7  O   LIG d   1      -6.770  93.460 120.035  0.00  0.00    -0.368 OA
BRANCH   7   8
ATOM      8  C   LIG d   1      -7.207  94.811 120.323  0.00  0.00     0.119 C 
BRANCH   8   9
ATOM      9  C   LIG d   1      -8.747  94.818 120.279  0.00  0.00     0.028 C 
ATOM     10  C   LIG d   1      -9.293  95.420 118.973  0.00  0.00     0.006 C 
ENDBRANCH   8   9
BRANCH   8  11
ATOM     11  C   LIG d   1      -6.764  95.785 119.228  0.00  0.00     0.028 C 
ATOM     12  C   LIG d   1      -5.733  96.811 119.723  0.00  0.00     0.006 C 
ENDBRANCH   8  11
ENDBRANCH   7   8
ENDBRANCH   1   7
BRANCH   6  13
ATOM     13  N   LIG d   1      -3.867  93.716 119.265  0.00  0.00    -0.311 N 
ATOM     14  C   LIG d   1      -2.863  93.535 120.121  0.00  0.00     0.210 C 
ATOM     15  C   LIG d   1      -2.042  94.791 120.430  0.00  0.00     0.109 C 
ATOM     16  O   LIG d   1      -2.554  92.447 120.629  0.00  0.00    -0.276 OA
ATOM     17  H   LIG d   1      -4.027  94.625 118.877  0.00  0.00     0.149 HD
ENDBRANCH   6  13
BRANCH   5  18
ATOM     18  N   LIG d   1      -3.055  91.256 117.647  0.00  0.00     0.381 N 
ATOM     19  H   LIG d   1      -2.360  91.888 117.991  0.00  0.00    -0.090 HD
ATOM     20  H   LIG d   1      -2.773  90.942 116.735  0.00  0.00    -0.090 HD
ATOM     21  H   LIG d   1      -3.140  90.477 118.262  0.00  0.00    -0.090 HD
ENDBRANCH   5  18
BRANCH   3  22
ATOM     22  C   LIG d   1      -7.612  90.872 116.221  0.00  0.00     0.382 C 
ATOM     23  O   LIG d   1      -7.507  89.667 115.888  0.00  0.00    -0.241 OA
ATOM     24  O   LIG d   1      -8.506  91.574 115.714  0.00  0.00    -0.241 OA
ENDBRANCH   3  22
TORSDOF 7
ENDMDL
MODEL 2
REMARK VINA RESULT:      -5.3     15.200     17.890
REMARK  7 active torsions:
REMARK  status: ('A' for Active; 'I' for Inactive)
REMARK    1  A    between atoms: C_2  and  C_3 
REMARK    2  A    between atoms: C_3  and  O_6 
REMARK    3  A    between atoms: C_3  and  C_4 
REMARK    4  A    between atoms: C_7  and  O_6 
REMARK    5  A    between atoms: C_9  and  C_10 
REMARK    6  A    between atoms: N_15  and  C_14 
REMARK    7  A    between atoms: N_20  and  C_19 
REMARK       I    between atoms: C_22  and  N_20 
ROOT
ATOM      1  C   LIG d   1      -4.291  76.230 115.627  0.00  0.00     0.161 C 
ATOM      2  C   LIG d   1      -3.291  75.305 115.283  0.00  0.00     0.016 C 
ATOM      3  C   LIG d   1      -2.110  75.120 116.038  0.00  0.00     0.038 C 
ATOM      4  C   LIG d   1      -1.918  75.743 117.280  0.00  0.00     0.028 C 
ATOM      5  C   LIG d   1      -2.669  77.063 117.418  0.00  0.00    -0.047 C 
ATOM      6  C   LIG d   1      -4.151  76.839 117.038  0.00  0.00     0.091 C 
ENDROOT
BRANCH   1   7
ATOM      7  O   LIG d   1      -5.590  75.626 115.470  0.00  0.00    -0.368 OA
BRANCH   7   8
ATOM      8  C   LIG d   1      -6.058  74.821 116.580  0.00  0.00     0.119 C 
BRANCH   8   9
ATOM      9  C   LIG d   1      -6.198  73.372 116.074  0.00  0.00     0.028 C 
ATOM     10  C   LIG d   1      -7.322  72.606 116.793  0.00  0.00     0.006 C 
ENDBRANCH   8   9
BRANCH   8  11
ATOM     11  C   LIG d   1      -7.466  75.236 117.015  0.00  0.00     0.028 C 
ATOM     12  C   LIG d   1      -8.036  76.385 116.169  0.00  0.00     0.006 C 
ENDBRANCH   8  11
ENDBRANCH   7   8
ENDBRANCH   1   7
BRANCH   6  13
ATOM     13  N   LIG d   1      -4.939  78.098 117.065  0.00  0.00    -0.311 N 
ATOM     14  C   LIG d   1      -5.683  78.476 118.104  0.00  0.00     0.210 C 
ATOM     15  C   LIG d   1      -6.431  79.799 117.916  0.00  0.00     0.109 C 
ATOM     16  O   LIG d   1      -5.768  77.856 119.175  0.00  0.00    -0.276 OA
ATOM     17  H   LIG d   1      -4.903  78.677 116.249  0.00  0.00     0.149 HD
ENDBRANCH   6  13
BRANCH   5  18
ATOM     18  N   LIG d   1      -2.492  77.534 118.804  0.00  0.00     0.381 N 
ATOM     19  H   LIG d   1      -2.432  76.750 119.423  0.00  0.00    -0.090 HD
ATOM     20  H   LIG d   1      -3.292  78.082 119.066  0.00  0.00    -0.090 HD
ATOM     21  H   LIG d   1      -1.665  78.085 118.874  0.00  0.00    -0.090 HD
ENDBRANCH   5  18
BRANCH   3  22
ATOM     22  C   LIG d   1      -1.087  74.332 115.531  0.00  0.00     0.382 C 
ATOM     23  O   LIG d   1      -0.869  74.307 114.296  0.00  0.00    -0.241 OA
ATOM     24  O   LIG d   1      -0.409  73.613 116.288  0.00  0.00    -0.241 OA
ENDBRANCH   3  22
TORSDOF 7
ENDMDL
MODEL 3
REMARK VINA RESULT:      -4.8     13.033     15.890
REMARK  7 active torsions:
REMARK  status: ('A' for Active; 'I' for Inactive)
REMARK    1  A    between atoms: C_2  and  C_3 
REMARK    2  A    between atoms: C_3  and  O_6 
REMARK    3  A    between atoms: C_3  and  C_4 
REMARK    4  A    between atoms: C_7  and  O_6 
REMARK    5  A    between atoms: C_9  and  C_10 
REMARK    6  A    between atoms: N_15  and  C_14 
REMARK    7  A    between atoms: N_20  and  C_19 
REMARK       I    between atoms: C_22  and  N_20 
ROOT
ATOM      1  C   LIG d   1      -5.924  78.877 117.366  0.00  0.00     0.161 C 
ATOM      2  C   LIG d   1      -4.720  78.254 117.732  0.00  0.00     0.016 C 
ATOM      3  C   LIG d   1      -4.262  78.169 119.067  0.00  0.00     0.038 C 
ATOM      4  C   LIG d   1      -5.057  78.572 120.151  0.00  0.00     0.028 C 
ATOM      5  C   LIG d   1      -6.059  79.665 119.794  0.00  0.00    -0.047 C 
ATOM      6  C   LIG d   1      -6.857  79.224 118.545  0.00  0.00     0.091 C 
ENDROOT
BRANCH   1   7
ATOM      7  O   LIG d   1      -6.619  78.066 116.399  0.00  0.00    -0.368 OA
BRANCH   7   8
ATOM      8  C   LIG d   1      -6.229  76.672 116.337  0.00  0.00     0.119 C 
BRANCH   8   9
ATOM      9  C   LIG d   1      -6.238  76.255 114.854  0.00  0.00     0.028 C 
ATOM     10  C   LIG d   1      -5.098  75.280 114.512  0.00  0.00     0.006 C 
ENDBRANCH   8   9
BRANCH   8  11
ATOM     11  C   LIG d   1      -7.265  75.773 117.018  0.00  0.00     0.028 C 
ATOM     12  C   LIG d   1      -8.712  76.176 116.690  0.00  0.00     0.006 C 
ENDBRANCH   8  11
ENDBRANCH   7   8
ENDBRANCH   1   7
BRANCH   6  13
ATOM     13  N   LIG d   1      -7.802  80.272 118.078  0.00  0.00    -0.311 N 
ATOM     14  C   LIG d   1      -9.072  80.342 118.471  0.00  0.00     0.210 C 
ATOM     15  C   LIG d   1      -9.878  81.489 117.853  0.00  0.00     0.109 C 
ATOM     16  O   LIG d   1      -9.600  79.583 119.298  0.00  0.00    -0.276 OA
ATOM     17  H   LIG d   1      -7.448  80.948 117.429  0.00  0.00     0.149 HD
ENDBRANCH   6  13
BRANCH   5  18
ATOM     18  N   LIG d   1      -6.912  79.891 120.975  0.00  0.00     0.381 N 
ATOM     19  H   LIG d   1      -7.694  79.267 120.953  0.00  0.00    -0.090 HD
ATOM     20  H   LIG d   1      -7.259  80.833 120.950  0.00  0.00    -0.090 HD
ATOM     21  H   LIG d   1      -6.386  79.745 121.809  0.00  0.00    -0.090 HD
ENDBRANCH   5  18
BRANCH   3  22
ATOM     22  C   LIG d   1      -2.978  77.712 119.326  0.00  0.00     0.382 C 
ATOM     23  O   LIG d   1      -2.361  78.118 120.340  0.00  0.00    -0.241 OA
ATOM     24  O   LIG d   1      -2.413  76.934 118.535  0.00  0.00    -0.241 OA
ENDBRANCH   3  22
TORSDOF 7
ENDMDL
MODEL 4
REMARK VINA RESULT:      -4.7     13.028     15.734
REMARK  7 active torsions:
REMARK  status: ('A' for Active; 'I' for Inactive)
REMARK    1  A    between atoms: C_2  and  C_3 
REMARK    2  A    between atoms: C_3  and  O_6 
REMARK    3  A    between atoms: C_3  and  C_4 
REMARK    4  A    between atoms: C_7  and  O_6 
REMARK    5  A    between atoms: C_9  and  C_10 
REMARK    6  A    between atoms: N_15  and  C_14 
REMARK    7  A    between atoms: N_20  and  C_19 
REMARK       I    between atoms: C_22  and  N_20 
ROOT
ATOM      1  C   LIG d   1      -6.155  77.875 117.836  0.00  0.00     0.161 C 
ATOM      2  C   LIG d   1      -7.405  78.513 117.770  0.00  0.00     0.016 C 
ATOM      3  C   LIG d   1      -7.700  79.718 118.448  0.00  0.00     0.038 C 
ATOM      4  C   LIG d   1      -6.712  80.451 119.121  0.00  0.00     0.028 C 
ATOM      5  C   LIG d   1      -5.563  79.590 119.635  0.00  0.00    -0.047 C 
ATOM      6  C   LIG d   1      -5.032  78.718 118.474  0.00  0.00     0.091 C 
ENDROOT
BRANCH   1   7
ATOM      7  O   LIG d   1      -5.763  77.431 116.522  0.00  0.00    -0.368 OA
BRANCH   7   8
ATOM      8  C   LIG d   1      -6.488  76.295 115.990  0.00  0.00     0.119 C 
BRANCH   8   9
ATOM      9  C   LIG d   1      -5.740  75.022 116.428  0.00  0.00     0.028 C 
ATOM     10  C   LIG d   1      -6.697  73.886 116.827  0.00  0.00     0.006 C 
ENDBRANCH   8   9
BRANCH   8  11
ATOM     11  C   LIG d   1      -6.454  76.279 114.459  0.00  0.00     0.028 C 
ATOM     12  C   LIG d   1      -5.061  75.954 113.898  0.00  0.00     0.006 C 
ENDBRANCH   8  11
ENDBRANCH   7   8
ENDBRANCH   1   7
BRANCH   6  13
ATOM     13  N   LIG d   1      -3.962  77.784 118.912  0.00  0.00    -0.311 N 
ATOM     14  C   LIG d   1      -2.727  77.798 118.413  0.00  0.00     0.210 C 
ATOM     15  C   LIG d   1      -1.784  76.736 118.988  0.00  0.00     0.109 C 
ATOM     16  O   LIG d   1      -2.314  78.610 117.571  0.00  0.00    -0.276 OA
ATOM     17  H   LIG d   1      -4.202  77.111 119.614  0.00  0.00     0.149 HD
ENDBRANCH   6  13
BRANCH   5  18
ATOM     18  N   LIG d   1      -4.541  80.496 120.192  0.00  0.00     0.381 N 
ATOM     19  H   LIG d   1      -4.889  80.928 121.025  0.00  0.00    -0.090 HD
ATOM     20  H   LIG d   1      -4.346  81.218 119.520  0.00  0.00    -0.090 HD
ATOM     21  H   LIG d   1      -3.709  79.988 120.395  0.00  0.00    -0.090 HD
ENDBRANCH   5  18
BRANCH   3  22
ATOM     22  C   LIG d   1      -9.007  80.181 118.490  0.00  0.00     0.382 C 
ATOM     23  O   LIG d   1      -9.383  81.070 117.689  0.00  0.00    -0.241 OA
ATOM     24  O   LIG d   1      -9.802  79.751 119.347  0.00  0.00    -0.241 OA
ENDBRANCH   3  22
TORSDOF 7
ENDMDL
MODEL 5
REMARK VINA RESULT:      -4.6     12.553     15.146
REMARK  7 active torsions:
REMARK  status: ('A' for Active; 'I' for Inactive)
REMARK    1  A    between atoms: C_2  and  C_3 
REMARK    2  A    between atoms: C_3  and  O_6 
REMARK    3  A    between atoms: C_3  and  C_4 
REMARK    4  A    between atoms: C_7  and  O_6 
REMARK    5  A    between atoms: C_9  and  C_10 
REMARK    6  A    between atoms: N_15  and  C_14 
REMARK    7  A    between atoms: N_20  and  C_19 
REMARK       I    between atoms: C_22  and  N_20 
ROOT
ATOM      1  C   LIG d   1      -6.331  78.821 118.154  0.00  0.00     0.161 C 
ATOM      2  C   LIG d   1      -5.059  79.349 118.431  0.00  0.00     0.016 C 
ATOM      3  C   LIG d   1      -3.854  78.697 118.080  0.00  0.00     0.038 C 
ATOM      4  C   LIG d   1      -3.840  77.539 117.289  0.00  0.00     0.028 C 
ATOM      5  C   LIG d   1      -5.108  76.702 117.419  0.00  0.00    -0.047 C 
ATOM      6  C   LIG d   1      -6.336  77.613 117.194  0.00  0.00     0.091 C 
ENDROOT
BRANCH   1   7
ATOM      7  O   LIG d   1      -7.193  79.863 117.654  0.00  0.00    -0.368 OA
BRANCH   7   8
ATOM      8  C   LIG d   1      -8.061  80.494 118.627  0.00  0.00     0.119 C 
BRANCH   8   9
ATOM      9  C   LIG d   1      -9.483  79.945 118.405  0.00  0.00     0.028 C 
ATOM     10  C   LIG d   1     -10.507  81.059 118.128  0.00  0.00     0.006 C 
ENDBRANCH   8   9
BRANCH   8  11
ATOM     11  C   LIG d   1      -8.167  82.003 118.383  0.00  0.00     0.028 C 
ATOM     12  C   LIG d   1      -7.538  82.834 119.512  0.00  0.00     0.006 C 
ENDBRANCH   8  11
ENDBRANCH   7   8
ENDBRANCH   1   7
BRANCH   6  13
ATOM     13  N   LIG d   1      -7.621  76.891 117.386  0.00  0.00    -0.311 N 
ATOM     14  C   LIG d   1      -8.277  76.287 116.397  0.00  0.00     0.210 C 
ATOM     15  C   LIG d   1      -9.593  75.618 116.808  0.00  0.00     0.109 C 
ATOM     16  O   LIG d   1      -7.879  76.214 115.225  0.00  0.00    -0.276 OA
ATOM     17  H   LIG d   1      -8.001  76.875 118.313  0.00  0.00     0.149 HD
ENDBRANCH   6  13
BRANCH   5  18
ATOM     18  N   LIG d   1      -5.018  75.602 116.440  0.00  0.00     0.381 N 
ATOM     19  H   LIG d   1      -5.675  75.752 115.701  0.00  0.00    -0.090 HD
ATOM     20  H   LIG d   1      -5.251  74.739 116.899  0.00  0.00    -0.090 HD
ATOM     21  H   LIG d   1      -4.095  75.550 116.069  0.00  0.00    -0.090 HD
ENDBRANCH   5  18
BRANCH   3  22
ATOM     22  C   LIG d   1      -2.646  79.184 118.556  0.00  0.00     0.382 C 
ATOM     23  O   LIG d   1      -1.706  79.418 117.759  0.00  0.00    -0.241 OA
ATOM     24  O   LIG d   1      -2.470  79.351 119.778  0.00  0.00    -0.241 OA
ENDBRANCH   3  22
TORSDOF 7
ENDMDL
MODEL 6
REMARK VINA RESULT:      -4.6     11.736     13.950
REMARK  7 active torsions:
REMARK  status: ('A' for Active; 'I' for Inactive)
REMARK    1  A    between atoms: C_2  and  C_3 
REMARK    2  A    between atoms: C_3  and  O_6 
REMARK    3  A    between atoms: C_3  and  C_4 
REMARK    4  A    between atoms: C_7  and  O_6 
REMARK    5  A    between atoms: C_9  and  C_10 
REMARK    6  A    between atoms: N_15  and  C_14 
REMARK    7  A    between atoms: N_20  and  C_19 
REMARK       I    between atoms: C_22  and  N_20 
ROOT
ATOM      1  C   LIG d   1     -17.613  96.893 117.629  0.00  0.00     0.161 C 
ATOM      2  C   LIG d   1     -16.697  97.768 117.022  0.00  0.00     0.016 C 
ATOM      3  C   LIG d   1     -17.028  98.608 115.934  0.00  0.00     0.038 C 
ATOM      4  C   LIG d   1     -18.346  98.740 115.473  0.00  0.00     0.028 C 
ATOM      5  C   LIG d   1     -19.202  97.504 115.724  0.00  0.00    -0.047 C 
ATOM      6  C   LIG d   1     -19.084  97.104 117.212  0.00  0.00     0.091 C 
ENDROOT
BRANCH   1   7
ATOM      7  O   LIG d   1     -17.483  96.966 119.063  0.00  0.00    -0.368 OA
BRANCH   7   8
ATOM      8  C   LIG d   1     -16.834  95.840 119.703  0.00  0.00     0.119 C 
BRANCH   8   9
ATOM      9  C   LIG d   1     -17.889  95.132 120.575  0.00  0.00     0.028 C 
ATOM     10  C   LIG d   1     -18.982  96.094 121.070  0.00  0.00     0.006 C 
ENDBRANCH   8   9
BRANCH   8  11
ATOM     11  C   LIG d   1     -15.747  96.303 120.677  0.00  0.00     0.028 C 
ATOM     12  C   LIG d   1     -15.516  97.821 120.634  0.00  0.00     0.006 C 
ENDBRANCH   8  11
ENDBRANCH   7   8
ENDBRANCH   1   7
BRANCH   6  13
ATOM     13  N   LIG d   1     -19.824  95.854 117.525  0.00  0.00    -0.311 N 
ATOM     14  C   LIG d   1     -21.067  95.838 118.003  0.00  0.00     0.210 C 
ATOM     15  C   LIG d   1     -21.637  94.442 118.275  0.00  0.00     0.109 C 
ATOM     16  O   LIG d   1     -21.763  96.846 118.197  0.00  0.00    -0.276 OA
ATOM     17  H   LIG d   1     -19.345  94.989 117.367  0.00  0.00     0.149 HD
ENDBRANCH   6  13
BRANCH   5  18
ATOM     18  N   LIG d   1     -20.584  97.828 115.321  0.00  0.00     0.381 N 
ATOM     19  H   LIG d   1     -21.184  97.051 115.511  0.00  0.00    -0.090 HD
ATOM     20  H   LIG d   1     -20.601  98.005 114.332  0.00  0.00    -0.090 HD
ATOM     21  H   LIG d   1     -20.903  98.633 115.814  0.00  0.00    -0.090 HD
ENDBRANCH   5  18
BRANCH   3  22
ATOM     22  C   LIG d   1     -16.025  99.298 115.269  0.00  0.00     0.382 C 
ATOM     23  O   LIG d   1     -16.246  99.785 114.134  0.00  0.00    -0.241 OA
ATOM     24  O   LIG d   1     -14.890  99.401 115.770  0.00  0.00    -0.241 OA
ENDBRANCH   3  22
TORSDOF 7
ENDMDL
MODEL 7
REMARK VINA RESULT:      -4.4     14.671     17.191
REMARK  7 active torsions:
REMARK  status: ('A' for Active; 'I' for Inactive)
REMARK    1  A    between atoms: C_2  and  C_3 
REMARK    2  A    between atoms: C_3  and  O_6 
REMARK    3  A    between atoms: C_3  and  C_4 
REMARK    4  A    between atoms: C_7  and  O_6 
REMARK    5  A    between atoms: C_9  and  C_10 
REMARK    6  A    between atoms: N_15  and  C_14 
REMARK    7  A    between atoms: N_20  and  C_19 
REMARK       I    between atoms: C_22  and  N_20 
ROOT
ATOM      1  C   LIG d   1      -3.252  76.582 117.634  0.00  0.00     0.161 C 
ATOM      2  C   LIG d   1      -1.937  76.122 117.448  0.00  0.00     0.016 C 
ATOM      3  C   LIG d   1      -1.561  75.239 116.410  0.00  0.00     0.038 C 
ATOM      4  C   LIG d   1      -2.451  74.872 115.390  0.00  0.00     0.028 C 
ATOM      5  C   LIG d   1      -3.914  74.908 115.820  0.00  0.00    -0.047 C 
ATOM      6  C   LIG d   1      -4.213  76.280 116.465  0.00  0.00     0.091 C 
ENDROOT
BRANCH   1   7
ATOM      7  O   LIG d   1      -3.240  77.994 117.921  0.00  0.00    -0.368 OA
BRANCH   7   8
ATOM      8  C   LIG d   1      -3.544  78.369 119.287  0.00  0.00     0.119 C 
BRANCH   8   9
ATOM      9  C   LIG d   1      -4.833  79.213 119.259  0.00  0.00     0.028 C 
ATOM     10  C   LIG d   1      -6.033  78.472 119.874  0.00  0.00     0.006 C 
ENDBRANCH   8   9
BRANCH   8  11
ATOM     11  C   LIG d   1      -2.467  79.293 119.865  0.00  0.00     0.028 C 
ATOM     12  C   LIG d   1      -3.044  80.601 120.428  0.00  0.00     0.006 C 
ENDBRANCH   8  11
ENDBRANCH   7   8
ENDBRANCH   1   7
BRANCH   6  13
ATOM     13  N   LIG d   1      -5.601  76.369 116.990  0.00  0.00    -0.311 N 
ATOM     14  C   LIG d   1      -6.638  76.770 116.257  0.00  0.00     0.210 C 
ATOM     15  C   LIG d   1      -7.978  76.808 116.998  0.00  0.00     0.109 C 
ATOM     16  O   LIG d   1      -6.581  77.068 115.054  0.00  0.00    -0.276 OA
ATOM     17  H   LIG d   1      -5.743  76.116 117.948  0.00  0.00     0.149 HD
ENDBRANCH   6  13
BRANCH   5  18
ATOM     18  N   LIG d   1      -4.736  74.639 114.625  0.00  0.00     0.381 N 
ATOM     19  H   LIG d   1      -4.197  74.805 113.799  0.00  0.00    -0.090 HD
ATOM     20  H   LIG d   1      -5.520  75.267 114.622  0.00  0.00    -0.090 HD
ATOM     21  H   LIG d   1      -5.057  73.696 114.638  0.00  0.00    -0.090 HD
ENDBRANCH   5  18
BRANCH   3  22
ATOM     22  C   LIG d   1      -0.291  74.681 116.409  0.00  0.00     0.382 C 
ATOM     23  O   LIG d   1      -0.137  73.473 116.710  0.00  0.00    -0.241 OA
ATOM     24  O   LIG d   1       0.706  75.382 116.155  0.00  0.00    -0.241 OA
ENDBRANCH   3  22
TORSDOF 7
ENDMDL
MODEL 8
REMARK VINA RESULT:      -4.4     15.444     17.969
REMARK  7 active torsions:
REMARK  status: ('A' for Active; 'I' for Inactive)
REMARK    1  A    between atoms: C_2  and  C_3 
REMARK    2  A    between atoms: C_3  and  O_6 
REMARK    3  A    between atoms: C_3  and  C_4 
REMARK    4  A    between atoms: C_7  and  O_6 
REMARK    5  A    between atoms: C_9  and  C_10 
REMARK    6  A    between atoms: N_15  and  C_14 
REMARK    7  A    between atoms: N_20  and  C_19 
REMARK       I    between atoms: C_22  and  N_20 
ROOT
ATOM      1  C   LIG d   1      -2.115  76.212 117.992  0.00  0.00     0.161 C 
ATOM      2  C   LIG d   1      -0.967  76.361 118.789  0.00  0.00     0.016 C 
ATOM      3  C   LIG d   1       0.258  75.709 118.518  0.00  0.00     0.038 C 
ATOM      4  C   LIG d   1       0.464  74.977 117.339  0.00  0.00     0.028 C 
ATOM      5  C   LIG d   1      -0.817  74.387 116.761  0.00  0.00    -0.047 C 
ATOM      6  C   LIG d   1      -1.876  75.506 116.641  0.00  0.00     0.091 C 
ENDROOT
BRANCH   1   7
ATOM      7  O   LIG d   1      -2.735  77.496 117.784  0.00  0.00    -0.368 OA
BRANCH   7   8
ATOM      8  C   LIG d   1      -3.941  77.752 118.545  0.00  0.00     0.119 C 
BRANCH   8   9
ATOM      9  C   LIG d   1      -5.125  77.725 117.559  0.00  0.00     0.028 C 
ATOM     10  C   LIG d   1      -6.132  76.608 117.880  0.00  0.00     0.006 C 
ENDBRANCH   8   9
BRANCH   8  11
ATOM     11  C   LIG d   1      -3.938  79.165 119.136  0.00  0.00     0.028 C 
ATOM     12  C   LIG d   1      -4.363  79.193 120.613  0.00  0.00     0.006 C 
ENDBRANCH   8  11
ENDBRANCH   7   8
ENDBRANCH   1   7
BRANCH   6  13
ATOM     13  N   LIG d   1      -3.188  74.997 116.162  0.00  0.00    -0.311 N 
ATOM     14  C   LIG d   1      -3.698  75.294 114.968  0.00  0.00     0.210 C 
ATOM     15  C   LIG d   1      -5.072  74.680 114.682  0.00  0.00     0.109 C 
ATOM     16  O   LIG d   1      -3.129  75.981 114.107  0.00  0.00    -0.276 OA
ATOM     17  H   LIG d   1      -3.703  74.406 116.785  0.00  0.00     0.149 HD
ENDBRANCH   6  13
BRANCH   5  18
ATOM     18  N   LIG d   1      -0.478  73.769 115.465  0.00  0.00     0.381 N 
ATOM     19  H   LIG d   1      -0.882  72.855 115.410  0.00  0.00    -0.090 HD
ATOM     20  H   LIG d   1       0.520  73.677 115.400  0.00  0.00    -0.090 HD
ATOM     21  H   LIG d   1      -0.817  74.336 114.719  0.00  0.00    -0.090 HD
ENDBRANCH   5  18
BRANCH   3  22
ATOM     22  C   LIG d   1       1.281  75.753 119.454  0.00  0.00     0.382 C 
ATOM     23  O   LIG d   1       1.440  74.800 120.254  0.00  0.00    -0.241 OA
ATOM     24  O   LIG d   1       2.019  76.753 119.536  0.00  0.00    -0.241 OA
ENDBRANCH   3  22
TORSDOF 7
ENDMDL
MODEL 9
REMARK VINA RESULT:      -4.3     26.557     29.567
REMARK  7 active torsions:
REMARK  status: ('A' for Active; 'I' for Inactive)
REMARK    1  A    between atoms: C_2  and  C_3 
REMARK    2  A    between atoms: C_3  and  O_6 
REMARK    3  A    between atoms: C_3  and  C_4 
REMARK    4  A    between atoms: C_7  and  O_6 
REMARK    5  A    between atoms: C_9  and  C_10 
REMARK    6  A    between atoms: N_15  and  C_14 
REMARK    7  A    between atoms: N_20  and  C_19 
REMARK       I    between atoms: C_22  and  N_20 
ROOT
ATOM      1  C   LIG d   1     -15.669  66.123 117.126  0.00  0.00     0.161 C 
ATOM      2  C   LIG d   1     -15.101  66.725 118.262  0.00  0.00     0.016 C 
ATOM      3  C   LIG d   1     -15.677  67.833 118.926  0.00  0.00     0.038 C 
ATOM      4  C   LIG d   1     -16.947  68.322 118.586  0.00  0.00     0.028 C 
ATOM      5  C   LIG d   1     -17.325  68.070 117.131  0.00  0.00    -0.047 C 
ATOM      6  C   LIG d   1     -17.111  66.573 116.809  0.00  0.00     0.091 C 
ENDROOT
BRANCH   1   7
ATOM      7  O   LIG d   1     -15.608  64.689 117.251  0.00  0.00    -0.368 OA
BRANCH   7   8
ATOM      8  C   LIG d   1     -15.645  64.165 118.601  0.00  0.00     0.119 C 
BRANCH   8   9
ATOM      9  C   LIG d   1     -14.836  62.853 118.611  0.00  0.00     0.028 C 
ATOM     10  C   LIG d   1     -13.621  62.920 119.553  0.00  0.00     0.006 C 
ENDBRANCH   8   9
BRANCH   8  11
ATOM     11  C   LIG d   1     -17.068  63.766 119.005  0.00  0.00     0.028 C 
ATOM     12  C   LIG d   1     -17.657  64.681 120.090  0.00  0.00     0.006 C 
ENDBRANCH   8  11
ENDBRANCH   7   8
ENDBRANCH   1   7
BRANCH   6  13
ATOM     13  N   LIG d   1     -17.376  66.257 115.381  0.00  0.00    -0.311 N 
ATOM     14  C   LIG d   1     -18.094  65.207 114.984  0.00  0.00     0.210 C 
ATOM     15  C   LIG d   1     -18.229  65.053 113.466  0.00  0.00     0.109 C 
ATOM     16  O   LIG d   1     -18.658  64.407 115.746  0.00  0.00    -0.276 OA
ATOM     17  H   LIG d   1     -16.983  66.872 114.697  0.00  0.00     0.149 HD
ENDBRANCH   6  13
BRANCH   5  18
ATOM     18  N   LIG d   1     -18.722  68.506 116.951  0.00  0.00     0.381 N 
ATOM     19  H   LIG d   1     -18.814  69.467 117.214  0.00  0.00    -0.090 HD
ATOM     20  H   LIG d   1     -19.314  67.957 117.549  0.00  0.00    -0.090 HD
ATOM     21  H   LIG d   1     -18.997  68.387 116.000  0.00  0.00    -0.090 HD
ENDBRANCH   5  18
BRANCH   3  22
ATOM     22  C   LIG d   1     -14.961  68.488 119.916  0.00  0.00     0.382 C 
ATOM     23  O   LIG d   1     -15.546  69.285 120.689  0.00  0.00    -0.241 OA
ATOM     24  O   LIG d   1     -13.731  68.326 120.019  0.00  0.00    -0.241 OA
ENDBRANCH   3  22
TORSDOF 7
ENDMDL
