MODEL 1
REMARK VINA RESULT:      -5.4      0.000      0.000
REMARK  7 active torsions:
REMARK  status: ('A' for Active; 'I' for Inactive)
REMARK    1  A    between atoms: C_2  and  C_3 
REMARK    2  A    between atoms: C_3  and  O_6 
REMARK    3  A    between atoms: C_3  and  C_4 
REMARK    4  A    between atoms: C_7  and  O_6 
REMARK    5  A    between atoms: C_9  and  C_10 
REMARK    6  A    between atoms: N_15  and  C_14 
REMARK    7  A    between atoms: N_20  and  C_19 
REMARK       I    between atoms: C_22  and  N_20 
ROOT
ATOM      1  C   LIG d   1      -4.936  92.272 118.279  0.00  0.00     0.161 C 
ATOM      2  C   LIG d   1      -5.047  91.339 117.236  0.00  0.00     0.016 C 
ATOM      3  C   LIG d   1      -6.152  91.284 116.354  0.00  0.00     0.038 C 
ATOM      4  C   LIG d   1      -7.156  92.264 116.363  0.00  0.00     0.028 C 
ATOM      5  C   LIG d   1      -7.342  92.928 117.723  0.00  0.00    -0.047 C 
ATOM      6  C   LIG d   1      -5.968  93.418 118.234  0.00  0.00     0.091 C 
ENDROOT
BRANCH   1   7
ATOM      7  O   LIG d   1      -3.597  92.805 118.318  0.00  0.00    -0.368 OA
BRANCH   7   8
ATOM      8  C   LIG d   1      -2.883  92.644 119.568  0.00  0.00     0.119 C 
BRANCH   8   9
ATOM      9  C   LIG d   1      -1.738  93.674 119.583  0.00  0.00     0.028 C 
ATOM     10  C   LIG d   1      -1.743  94.576 118.337  0.00  0.00     0.006 C 
ENDBRANCH   8   9
BRANCH   8  11
ATOM     11  C   LIG d   1      -2.199  91.276 119.647  0.00  0.00     0.028 C 
ATOM     12  C   LIG d   1      -1.394  90.939 118.382  0.00  0.00     0.006 C 
ENDBRANCH   8  11
ENDBRANCH   7   8
ENDBRANCH   1   7
BRANCH   6  13
ATOM     13  N   LIG d   1      -6.048  94.006 119.597  0.00  0.00    -0.311 N 
ATOM     14  C   LIG d   1      -6.269  95.299 119.826  0.00  0.00     0.210 C 
ATOM     15  C   LIG d   1      -6.293  95.699 121.305  0.00  0.00     0.109 C 
ATOM     16  O   LIG d   1      -6.480  96.147 118.947  0.00  0.00    -0.276 OA
ATOM     17  H   LIG d   1      -5.919  93.383 120.371  0.00  0.00     0.149 HD
ENDBRANCH   6  13
BRANCH   5  18
ATOM     18  N   LIG d   1      -8.320  94.020 117.555  0.00  0.00     0.381 N 
ATOM     19  H   LIG d   1      -7.873  94.902 117.712  0.00  0.00    -0.090 HD
ATOM     20  H   LIG d   1      -9.050  93.910 118.237  0.00  0.00    -0.090 HD
ATOM     21  H   LIG d   1      -8.706  93.994 116.637  0.00  0.00    -0.090 HD
ENDBRANCH   5  18
BRANCH   3  22
ATOM     22  C   LIG d   1      -6.279  90.218 115.477  0.00  0.00     0.382 C 
ATOM     23  O   LIG d   1      -5.330  89.411 115.329  0.00  0.00    -0.241 OA
ATOM     24  O   LIG d   1      -7.315  90.078 114.799  0.00  0.00    -0.241 OA
ENDBRANCH   3  22
TORSDOF 7
ENDMDL
MODEL 2
REMARK VINA RESULT:      -5.3      1.856      2.296
REMARK  7 active torsions:
REMARK  status: ('A' for Active; 'I' for Inactive)
REMARK    1  A    between atoms: C_2  and  C_3 
REMARK    2  A    between atoms: C_3  and  O_6 
REMARK    3  A    between atoms: C_3  and  C_4 
REMARK    4  A    between atoms: C_7  and  O_6 
REMARK    5  A    between atoms: C_9  and  C_10 
REMARK    6  A    between atoms: N_15  and  C_14 
REMARK    7  A    between atoms: N_20  and  C_19 
REMARK       I    between atoms: C_22  and  N_20 
ROOT
ATOM      1  C   LIG d   1      -5.034  91.120 117.768  0.00  0.00     0.161 C 
ATOM      2  C   LIG d   1      -5.720  90.565 116.676  0.00  0.00     0.016 C 
ATOM      3  C   LIG d   1      -6.816  91.195 116.043  0.00  0.00     0.038 C 
ATOM      4  C   LIG d   1      -7.207  92.503 116.367  0.00  0.00     0.028 C 
ATOM      5  C   LIG d   1      -6.867  92.900 117.800  0.00  0.00    -0.047 C 
ATOM      6  C   LIG d   1      -5.374  92.596 118.064  0.00  0.00     0.091 C 
ENDROOT
BRANCH   1   7
ATOM      7  O   LIG d   1      -3.613  90.961 117.585  0.00  0.00    -0.368 OA
BRANCH   7   8
ATOM      8  C   LIG d   1      -2.936  90.120 118.550  0.00  0.00     0.119 C 
BRANCH   8   9
ATOM      9  C   LIG d   1      -1.586  90.786 118.879  0.00  0.00     0.028 C 
ATOM     10  C   LIG d   1      -1.407  91.038 120.386  0.00  0.00     0.006 C 
ENDBRANCH   8   9
BRANCH   8  11
ATOM     11  C   LIG d   1      -2.579  88.757 117.949  0.00  0.00     0.028 C 
ATOM     12  C   LIG d   1      -1.100  88.652 117.546  0.00  0.00     0.006 C 
ENDBRANCH   8  11
ENDBRANCH   7   8
ENDBRANCH   1   7
BRANCH   6  13
ATOM     13  N   LIG d   1      -4.979  92.876 119.469  0.00  0.00    -0.311 N 
ATOM     14  C   LIG d   1      -3.945  93.648 119.800  0.00  0.00     0.210 C 
ATOM     15  C   LIG d   1      -3.699  93.789 121.305  0.00  0.00     0.109 C 
ATOM     16  O   LIG d   1      -3.228  94.254 118.990  0.00  0.00    -0.276 OA
ATOM     17  H   LIG d   1      -5.526  92.449 120.191  0.00  0.00     0.149 HD
ENDBRANCH   6  13
BRANCH   5  18
ATOM     18  N   LIG d   1      -7.203  94.327 117.959  0.00  0.00     0.381 N 
ATOM     19  H   LIG d   1      -6.811  94.854 117.204  0.00  0.00    -0.090 HD
ATOM     20  H   LIG d   1      -6.803  94.662 118.818  0.00  0.00    -0.090 HD
ATOM     21  H   LIG d   1      -8.192  94.445 117.976  0.00  0.00    -0.090 HD
ENDBRANCH   5  18
BRANCH   3  22
ATOM     22  C   LIG d   1      -7.559  90.500 115.101  0.00  0.00     0.382 C 
ATOM     23  O   LIG d   1      -7.349  90.682 113.878  0.00  0.00    -0.241 OA
ATOM     24  O   LIG d   1      -8.467  89.726 115.459  0.00  0.00    -0.241 OA
ENDBRANCH   3  22
TORSDOF 7
ENDMDL
MODEL 3
REMARK VINA RESULT:      -5.3     13.657     15.655
REMARK  7 active torsions:
REMARK  status: ('A' for Active; 'I' for Inactive)
REMARK    1  A    between atoms: C_2  and  C_3 
REMARK    2  A    between atoms: C_3  and  O_6 
REMARK    3  A    between atoms: C_3  and  C_4 
REMARK    4  A    between atoms: C_7  and  O_6 
REMARK    5  A    between atoms: C_9  and  C_10 
REMARK    6  A    between atoms: N_15  and  C_14 
REMARK    7  A    between atoms: N_20  and  C_19 
REMARK       I    between atoms: C_22  and  N_20 
ROOT
ATOM      1  C   LIG d   1      -5.765  77.389 117.010  0.00  0.00     0.161 C 
ATOM      2  C   LIG d   1      -7.148  77.192 117.161  0.00  0.00     0.016 C 
ATOM      3  C   LIG d   1      -7.991  78.090 117.856  0.00  0.00     0.038 C 
ATOM      4  C   LIG d   1      -7.531  79.331 118.319  0.00  0.00     0.028 C 
ATOM      5  C   LIG d   1      -6.038  79.345 118.632  0.00  0.00    -0.047 C 
ATOM      6  C   LIG d   1      -5.265  78.792 117.413  0.00  0.00     0.091 C 
ENDROOT
BRANCH   1   7
ATOM      7  O   LIG d   1      -5.374  77.087 115.656  0.00  0.00    -0.368 OA
BRANCH   7   8
ATOM      8  C   LIG d   1      -5.006  75.711 115.391  0.00  0.00     0.119 C 
BRANCH   8   9
ATOM      9  C   LIG d   1      -3.489  75.681 115.122  0.00  0.00     0.028 C 
ATOM     10  C   LIG d   1      -2.689  75.171 116.332  0.00  0.00     0.006 C 
ENDBRANCH   8   9
BRANCH   8  11
ATOM     11  C   LIG d   1      -5.657  75.199 114.103  0.00  0.00     0.028 C 
ATOM     12  C   LIG d   1      -6.222  76.331 113.230  0.00  0.00     0.006 C 
ENDBRANCH   8  11
ENDBRANCH   7   8
ENDBRANCH   1   7
BRANCH   6  13
ATOM     13  N   LIG d   1      -3.804  78.692 117.667  0.00  0.00    -0.311 N 
ATOM     14  C   LIG d   1      -2.880  78.984 116.753  0.00  0.00     0.210 C 
ATOM     15  C   LIG d   1      -1.431  78.794 117.214  0.00  0.00     0.109 C 
ATOM     16  O   LIG d   1      -3.121  79.412 115.614  0.00  0.00    -0.276 OA
ATOM     17  H   LIG d   1      -3.518  78.383 118.575  0.00  0.00     0.149 HD
ENDBRANCH   6  13
BRANCH   5  18
ATOM     18  N   LIG d   1      -5.667  80.731 118.972  0.00  0.00     0.381 N 
ATOM     19  H   LIG d   1      -4.789  80.960 118.550  0.00  0.00    -0.090 HD
ATOM     20  H   LIG d   1      -5.566  80.806 119.969  0.00  0.00    -0.090 HD
ATOM     21  H   LIG d   1      -6.371  81.361 118.655  0.00  0.00    -0.090 HD
ENDBRANCH   5  18
BRANCH   3  22
ATOM     22  C   LIG d   1      -9.303  77.731 118.127  0.00  0.00     0.382 C 
ATOM     23  O   LIG d   1      -9.708  76.578 117.844  0.00  0.00    -0.241 OA
ATOM     24  O   LIG d   1     -10.098  78.559 118.610  0.00  0.00    -0.241 OA
ENDBRANCH   3  22
TORSDOF 7
ENDMDL
MODEL 4
REMARK VINA RESULT:      -5.1     27.034     29.871
REMARK  7 active torsions:
REMARK  status: ('A' for Active; 'I' for Inactive)
REMARK    1  A    between atoms: C_2  and  C_3 
REMARK    2  A    between atoms: C_3  and  O_6 
REMARK    3  A    between atoms: C_3  and  C_4 
REMARK    4  A    between atoms: C_7  and  O_6 
REMARK    5  A    between atoms: C_9  and  C_10 
REMARK    6  A    between atoms: N_15  and  C_14 
REMARK    7  A    between atoms: N_20  and  C_19 
REMARK       I    between atoms: C_22  and  N_20 
ROOT
ATOM      1  C   LIG d   1     -16.013  65.504 117.119  0.00  0.00     0.161 C 
ATOM      2  C   LIG d   1     -16.046  66.814 116.615  0.00  0.00     0.016 C 
ATOM      3  C   LIG d   1     -15.325  67.887 117.188  0.00  0.00     0.038 C 
ATOM      4  C   LIG d   1     -14.396  67.688 118.220  0.00  0.00     0.028 C 
ATOM      5  C   LIG d   1     -14.708  66.474 119.089  0.00  0.00    -0.047 C 
ATOM      6  C   LIG d   1     -14.920  65.245 118.177  0.00  0.00     0.091 C 
ENDROOT
BRANCH   1   7
ATOM      7  O   LIG d   1     -15.891  64.565 116.032  0.00  0.00    -0.368 OA
BRANCH   7   8
ATOM      8  C   LIG d   1     -17.096  63.843 115.675  0.00  0.00     0.119 C 
BRANCH   8   9
ATOM      9  C   LIG d   1     -16.952  62.407 116.217  0.00  0.00     0.028 C 
ATOM     10  C   LIG d   1     -17.556  61.359 115.267  0.00  0.00     0.006 C 
ENDBRANCH   8   9
BRANCH   8  11
ATOM     11  C   LIG d   1     -17.226  63.693 114.157  0.00  0.00     0.028 C 
ATOM     12  C   LIG d   1     -17.101  65.032 113.413  0.00  0.00     0.006 C 
ENDBRANCH   8  11
ENDBRANCH   7   8
ENDBRANCH   1   7
BRANCH   6  13
ATOM     13  N   LIG d   1     -15.312  64.032 118.941  0.00  0.00    -0.311 N 
ATOM     14  C   LIG d   1     -14.620  62.894 118.916  0.00  0.00     0.210 C 
ATOM     15  C   LIG d   1     -15.209  61.761 119.761  0.00  0.00     0.109 C 
ATOM     16  O   LIG d   1     -13.557  62.726 118.300  0.00  0.00    -0.276 OA
ATOM     17  H   LIG d   1     -16.145  64.091 119.493  0.00  0.00     0.149 HD
ENDBRANCH   6  13
BRANCH   5  18
ATOM     18  N   LIG d   1     -13.589  66.305 120.036  0.00  0.00     0.381 N 
ATOM     19  H   LIG d   1     -13.037  67.140 120.061  0.00  0.00    -0.090 HD
ATOM     20  H   LIG d   1     -13.006  65.551 119.719  0.00  0.00    -0.090 HD
ATOM     21  H   LIG d   1     -13.940  66.104 120.946  0.00  0.00    -0.090 HD
ENDBRANCH   5  18
BRANCH   3  22
ATOM     22  C   LIG d   1     -15.559  69.183 116.753  0.00  0.00     0.382 C 
ATOM     23  O   LIG d   1     -15.072  69.577 115.667  0.00  0.00    -0.241 OA
ATOM     24  O   LIG d   1     -16.215  69.976 117.455  0.00  0.00    -0.241 OA
ENDBRANCH   3  22
TORSDOF 7
ENDMDL
MODEL 5
REMARK VINA RESULT:      -5.1     14.577     17.031
REMARK  7 active torsions:
REMARK  status: ('A' for Active; 'I' for Inactive)
REMARK    1  A    between atoms: C_2  and  C_3 
REMARK    2  A    between atoms: C_3  and  O_6 
REMARK    3  A    between atoms: C_3  and  C_4 
REMARK    4  A    between atoms: C_7  and  O_6 
REMARK    5  A    between atoms: C_9  and  C_10 
REMARK    6  A    between atoms: N_15  and  C_14 
REMARK    7  A    between atoms: N_20  and  C_19 
REMARK       I    between atoms: C_22  and  N_20 
ROOT
ATOM      1  C   LIG d   1      -2.368  77.368 116.695  0.00  0.00     0.161 C 
ATOM      2  C   LIG d   1      -2.624  78.393 115.769  0.00  0.00     0.016 C 
ATOM      3  C   LIG d   1      -1.788  78.670 114.663  0.00  0.00     0.038 C 
ATOM      4  C   LIG d   1      -0.714  77.836 114.319  0.00  0.00     0.028 C 
ATOM      5  C   LIG d   1      -0.121  77.090 115.509  0.00  0.00    -0.047 C 
ATOM      6  C   LIG d   1      -1.262  76.378 116.273  0.00  0.00     0.091 C 
ENDROOT
BRANCH   1   7
ATOM      7  O   LIG d   1      -3.588  76.659 116.989  0.00  0.00    -0.368 OA
BRANCH   7   8
ATOM      8  C   LIG d   1      -4.763  77.081 116.254  0.00  0.00     0.119 C 
BRANCH   8   9
ATOM      9  C   LIG d   1      -5.794  77.591 117.280  0.00  0.00     0.028 C 
ATOM     10  C   LIG d   1      -7.222  77.116 116.964  0.00  0.00     0.006 C 
ENDBRANCH   8   9
BRANCH   8  11
ATOM     11  C   LIG d   1      -5.438  75.897 115.555  0.00  0.00     0.028 C 
ATOM     12  C   LIG d   1      -4.859  75.620 114.159  0.00  0.00     0.006 C 
ENDBRANCH   8  11
ENDBRANCH   7   8
ENDBRANCH   1   7
BRANCH   6  13
ATOM     13  N   LIG d   1      -0.780  75.693 117.501  0.00  0.00    -0.311 N 
ATOM     14  C   LIG d   1      -0.413  74.413 117.529  0.00  0.00     0.210 C 
ATOM     15  C   LIG d   1       0.033  73.898 118.902  0.00  0.00     0.109 C 
ATOM     16  O   LIG d   1      -0.382  73.663 116.542  0.00  0.00    -0.276 OA
ATOM     17  H   LIG d   1      -0.743  76.235 118.341  0.00  0.00     0.149 HD
ENDBRANCH   6  13
BRANCH   5  18
ATOM     18  N   LIG d   1       0.896  76.157 114.989  0.00  0.00     0.381 N 
ATOM     19  H   LIG d   1       1.758  76.642 114.844  0.00  0.00    -0.090 HD
ATOM     20  H   LIG d   1       0.584  75.796 114.104  0.00  0.00    -0.090 HD
ATOM     21  H   LIG d   1       1.032  75.408 115.631  0.00  0.00    -0.090 HD
ENDBRANCH   5  18
BRANCH   3  22
ATOM     22  C   LIG d   1      -2.001  79.815 113.910  0.00  0.00     0.382 C 
ATOM     23  O   LIG d   1      -1.056  80.323 113.261  0.00  0.00    -0.241 OA
ATOM     24  O   LIG d   1      -3.116  80.370 113.907  0.00  0.00    -0.241 OA
ENDBRANCH   3  22
TORSDOF 7
ENDMDL
MODEL 6
REMARK VINA RESULT:      -5.0     27.773     30.255
REMARK  7 active torsions:
REMARK  status: ('A' for Active; 'I' for Inactive)
REMARK    1  A    between atoms: C_2  and  C_3 
REMARK    2  A    between atoms: C_3  and  O_6 
REMARK    3  A    between atoms: C_3  and  C_4 
REMARK    4  A    between atoms: C_7  and  O_6 
REMARK    5  A    between atoms: C_9  and  C_10 
REMARK    6  A    between atoms: N_15  and  C_14 
REMARK    7  A    between atoms: N_20  and  C_19 
REMARK       I    between atoms: C_22  and  N_20 
ROOT
ATOM      1  C   LIG d   1     -16.331  64.520 116.725  0.00  0.00     0.161 C 
ATOM      2  C   LIG d   1     -16.835  63.239 116.443  0.00  0.00     0.016 C 
ATOM      3  C   LIG d   1     -17.275  62.842 115.159  0.00  0.00     0.038 C 
ATOM      4  C   LIG d   1     -17.100  63.656 114.030  0.00  0.00     0.028 C 
ATOM      5  C   LIG d   1     -17.061  65.145 114.357  0.00  0.00    -0.047 C 
ATOM      6  C   LIG d   1     -16.029  65.384 115.483  0.00  0.00     0.091 C 
ENDROOT
BRANCH   1   7
ATOM      7  O   LIG d   1     -15.159  64.412 117.557  0.00  0.00    -0.368 OA
BRANCH   7   8
ATOM      8  C   LIG d   1     -15.329  64.781 118.948  0.00  0.00     0.119 C 
BRANCH   8   9
ATOM      9  C   LIG d   1     -14.498  66.055 119.194  0.00  0.00     0.028 C 
ATOM     10  C   LIG d   1     -13.805  66.047 120.567  0.00  0.00     0.006 C 
ENDBRANCH   8   9
BRANCH   8  11
ATOM     11  C   LIG d   1     -14.735  63.722 119.881  0.00  0.00     0.028 C 
ATOM     12  C   LIG d   1     -14.199  62.495 119.127  0.00  0.00     0.006 C 
ENDBRANCH   8  11
ENDBRANCH   7   8
ENDBRANCH   1   7
BRANCH   6  13
ATOM     13  N   LIG d   1     -15.988  66.804 115.922  0.00  0.00    -0.311 N 
ATOM     14  C   LIG d   1     -15.160  67.708 115.402  0.00  0.00     0.210 C 
ATOM     15  C   LIG d   1     -15.268  69.109 116.012  0.00  0.00     0.109 C 
ATOM     16  O   LIG d   1     -14.368  67.491 114.473  0.00  0.00    -0.276 OA
ATOM     17  H   LIG d   1     -16.619  67.074 116.650  0.00  0.00     0.149 HD
ENDBRANCH   6  13
BRANCH   5  18
ATOM     18  N   LIG d   1     -16.736  65.866 113.112  0.00  0.00     0.381 N 
ATOM     19  H   LIG d   1     -16.509  66.818 113.321  0.00  0.00    -0.090 HD
ATOM     20  H   LIG d   1     -17.542  65.858 112.512  0.00  0.00    -0.090 HD
ATOM     21  H   LIG d   1     -15.968  65.427 112.654  0.00  0.00    -0.090 HD
ENDBRANCH   5  18
BRANCH   3  22
ATOM     22  C   LIG d   1     -17.935  61.633 115.003  0.00  0.00     0.382 C 
ATOM     23  O   LIG d   1     -17.287  60.559 115.011  0.00  0.00    -0.241 OA
ATOM     24  O   LIG d   1     -19.166  61.605 114.811  0.00  0.00    -0.241 OA
ENDBRANCH   3  22
TORSDOF 7
ENDMDL
MODEL 7
REMARK VINA RESULT:      -4.8      5.771      8.497
REMARK  7 active torsions:
REMARK  status: ('A' for Active; 'I' for Inactive)
REMARK    1  A    between atoms: C_2  and  C_3 
REMARK    2  A    between atoms: C_3  and  O_6 
REMARK    3  A    between atoms: C_3  and  C_4 
REMARK    4  A    between atoms: C_7  and  O_6 
REMARK    5  A    between atoms: C_9  and  C_10 
REMARK    6  A    between atoms: N_15  and  C_14 
REMARK    7  A    between atoms: N_20  and  C_19 
REMARK       I    between atoms: C_22  and  N_20 
ROOT
ATOM      1  C   LIG d   1       1.001  88.422 117.053  0.00  0.00     0.161 C 
ATOM      2  C   LIG d   1      -0.397  88.295 117.107  0.00  0.00     0.016 C 
ATOM      3  C   LIG d   1      -1.229  89.160 117.854  0.00  0.00     0.038 C 
ATOM      4  C   LIG d   1      -0.729  90.311 118.481  0.00  0.00     0.028 C 
ATOM      5  C   LIG d   1       0.741  90.197 118.873  0.00  0.00    -0.047 C 
ATOM      6  C   LIG d   1       1.554  89.738 117.641  0.00  0.00     0.091 C 
ENDROOT
BRANCH   1   7
ATOM      7  O   LIG d   1       1.456  88.250 115.696  0.00  0.00    -0.368 OA
BRANCH   7   8
ATOM      8  C   LIG d   1       2.369  87.149 115.465  0.00  0.00     0.119 C 
BRANCH   8   9
ATOM      9  C   LIG d   1       3.236  87.516 114.244  0.00  0.00     0.028 C 
ATOM     10  C   LIG d   1       4.294  88.582 114.575  0.00  0.00     0.006 C 
ENDBRANCH   8   9
BRANCH   8  11
ATOM     11  C   LIG d   1       1.617  85.878 115.061  0.00  0.00     0.028 C 
ATOM     12  C   LIG d   1       1.803  85.521 113.577  0.00  0.00     0.006 C 
ENDBRANCH   8  11
ENDBRANCH   7   8
ENDBRANCH   1   7
BRANCH   6  13
ATOM     13  N   LIG d   1       2.989  89.520 117.958  0.00  0.00    -0.311 N 
ATOM     14  C   LIG d   1       3.921  90.462 117.822  0.00  0.00     0.210 C 
ATOM     15  C   LIG d   1       5.343  90.023 118.185  0.00  0.00     0.109 C 
ATOM     16  O   LIG d   1       3.700  91.629 117.465  0.00  0.00    -0.276 OA
ATOM     17  H   LIG d   1       3.252  88.611 118.284  0.00  0.00     0.149 HD
ENDBRANCH   6  13
BRANCH   5  18
ATOM     18  N   LIG d   1       1.167  91.512 119.389  0.00  0.00     0.381 N 
ATOM     19  H   LIG d   1       0.676  92.240 118.910  0.00  0.00    -0.090 HD
ATOM     20  H   LIG d   1       2.150  91.626 119.215  0.00  0.00    -0.090 HD
ATOM     21  H   LIG d   1       0.987  91.568 120.367  0.00  0.00    -0.090 HD
ENDBRANCH   5  18
BRANCH   3  22
ATOM     22  C   LIG d   1      -2.572  88.855 118.012  0.00  0.00     0.382 C 
ATOM     23  O   LIG d   1      -2.957  88.224 119.026  0.00  0.00    -0.241 OA
ATOM     24  O   LIG d   1      -3.398  89.163 117.132  0.00  0.00    -0.241 OA
ENDBRANCH   3  22
TORSDOF 7
ENDMDL
MODEL 8
REMARK VINA RESULT:      -4.7     25.924     28.584
REMARK  7 active torsions:
REMARK  status: ('A' for Active; 'I' for Inactive)
REMARK    1  A    between atoms: C_2  and  C_3 
REMARK    2  A    between atoms: C_3  and  O_6 
REMARK    3  A    between atoms: C_3  and  C_4 
REMARK    4  A    between atoms: C_7  and  O_6 
REMARK    5  A    between atoms: C_9  and  C_10 
REMARK    6  A    between atoms: N_15  and  C_14 
REMARK    7  A    between atoms: N_20  and  C_19 
REMARK       I    between atoms: C_22  and  N_20 
ROOT
ATOM      1  C   LIG d   1     -16.063  66.366 116.666  0.00  0.00     0.161 C 
ATOM      2  C   LIG d   1     -15.337  66.777 115.535  0.00  0.00     0.016 C 
ATOM      3  C   LIG d   1     -15.042  68.130 115.249  0.00  0.00     0.038 C 
ATOM      4  C   LIG d   1     -15.326  69.159 116.160  0.00  0.00     0.028 C 
ATOM      5  C   LIG d   1     -16.505  68.849 117.076  0.00  0.00    -0.047 C 
ATOM      6  C   LIG d   1     -16.284  67.465 117.727  0.00  0.00     0.091 C 
ENDROOT
BRANCH   1   7
ATOM      7  O   LIG d   1     -15.431  65.215 117.260  0.00  0.00    -0.368 OA
BRANCH   7   8
ATOM      8  C   LIG d   1     -16.149  63.962 117.143  0.00  0.00     0.119 C 
BRANCH   8   9
ATOM      9  C   LIG d   1     -17.389  64.220 116.264  0.00  0.00     0.028 C 
ATOM     10  C   LIG d   1     -17.360  63.410 114.957  0.00  0.00     0.006 C 
ENDBRANCH   8   9
BRANCH   8  11
ATOM     11  C   LIG d   1     -16.700  63.507 118.497  0.00  0.00     0.028 C 
ATOM     12  C   LIG d   1     -18.236  63.513 118.548  0.00  0.00     0.006 C 
ENDBRANCH   8  11
ENDBRANCH   7   8
ENDBRANCH   1   7
BRANCH   6  13
ATOM     13  N   LIG d   1     -17.432  67.047 118.574  0.00  0.00    -0.311 N 
ATOM     14  C   LIG d   1     -17.473  67.227 119.893  0.00  0.00     0.210 C 
ATOM     15  C   LIG d   1     -18.740  66.705 120.577  0.00  0.00     0.109 C 
ATOM     16  O   LIG d   1     -16.595  67.798 120.557  0.00  0.00    -0.276 OA
ATOM     17  H   LIG d   1     -18.201  66.603 118.112  0.00  0.00     0.149 HD
ENDBRANCH   6  13
BRANCH   5  18
ATOM     18  N   LIG d   1     -16.602  69.942 118.062  0.00  0.00     0.381 N 
ATOM     19  H   LIG d   1     -16.800  69.565 118.967  0.00  0.00    -0.090 HD
ATOM     20  H   LIG d   1     -17.359  70.549 117.801  0.00  0.00    -0.090 HD
ATOM     21  H   LIG d   1     -15.749  70.456 118.088  0.00  0.00    -0.090 HD
ENDBRANCH   5  18
BRANCH   3  22
ATOM     22  C   LIG d   1     -14.493  68.470 114.022  0.00  0.00     0.382 C 
ATOM     23  O   LIG d   1     -14.174  69.660 113.786  0.00  0.00    -0.241 OA
ATOM     24  O   LIG d   1     -14.353  67.609 113.133  0.00  0.00    -0.241 OA
ENDBRANCH   3  22
TORSDOF 7
ENDMDL
MODEL 9
REMARK VINA RESULT:      -4.7     13.493     15.746
REMARK  7 active torsions:
REMARK  status: ('A' for Active; 'I' for Inactive)
REMARK    1  A    between atoms: C_2  and  C_3 
REMARK    2  A    between atoms: C_3  and  O_6 
REMARK    3  A    between atoms: C_3  and  C_4 
REMARK    4  A    between atoms: C_7  and  O_6 
REMARK    5  A    between atoms: C_9  and  C_10 
REMARK    6  A    between atoms: N_15  and  C_14 
REMARK    7  A    between atoms: N_20  and  C_19 
REMARK       I    between atoms: C_22  and  N_20 
ROOT
ATOM      1  C   LIG d   1      -6.655  76.991 116.992  0.00  0.00     0.161 C 
ATOM      2  C   LIG d   1      -7.798  76.187 116.849  0.00  0.00     0.016 C 
ATOM      3  C   LIG d   1      -9.017  76.442 117.520  0.00  0.00     0.038 C 
ATOM      4  C   LIG d   1      -9.222  77.612 118.267  0.00  0.00     0.028 C 
ATOM      5  C   LIG d   1      -7.937  78.193 118.847  0.00  0.00    -0.047 C 
ATOM      6  C   LIG d   1      -6.894  78.333 117.714  0.00  0.00     0.091 C 
ENDROOT
BRANCH   1   7
ATOM      7  O   LIG d   1      -6.053  77.217 115.702  0.00  0.00    -0.368 OA
BRANCH   7   8
ATOM      8  C   LIG d   1      -5.138  76.194 115.237  0.00  0.00     0.119 C 
BRANCH   8   9
ATOM      9  C   LIG d   1      -3.804  76.886 114.897  0.00  0.00     0.028 C 
ATOM     10  C   LIG d   1      -3.049  77.354 116.153  0.00  0.00     0.006 C 
ENDBRANCH   8   9
BRANCH   8  11
ATOM     11  C   LIG d   1      -5.618  75.571 113.923  0.00  0.00     0.028 C 
ATOM     12  C   LIG d   1      -6.476  76.533 113.087  0.00  0.00     0.006 C 
ENDBRANCH   8  11
ENDBRANCH   7   8
ENDBRANCH   1   7
BRANCH   6  13
ATOM     13  N   LIG d   1      -5.579  78.817 118.211  0.00  0.00    -0.311 N 
ATOM     14  C   LIG d   1      -5.267  80.107 118.325  0.00  0.00     0.210 C 
ATOM     15  C   LIG d   1      -3.852  80.387 118.839  0.00  0.00     0.109 C 
ATOM     16  O   LIG d   1      -6.040  81.045 118.078  0.00  0.00    -0.276 OA
ATOM     17  H   LIG d   1      -4.903  78.122 118.463  0.00  0.00     0.149 HD
ENDBRANCH   6  13
BRANCH   5  18
ATOM     18  N   LIG d   1      -8.277  79.480 119.482  0.00  0.00     0.381 N 
ATOM     19  H   LIG d   1      -9.175  79.787 119.166  0.00  0.00    -0.090 HD
ATOM     20  H   LIG d   1      -7.596  80.167 119.210  0.00  0.00    -0.090 HD
ATOM     21  H   LIG d   1      -8.282  79.381 120.473  0.00  0.00    -0.090 HD
ENDBRANCH   5  18
BRANCH   3  22
ATOM     22  C   LIG d   1     -10.033  75.500 117.480  0.00  0.00     0.382 C 
ATOM     23  O   LIG d   1      -9.758  74.277 117.543  0.00  0.00    -0.241 OA
ATOM     24  O   LIG d   1     -11.218  75.855 117.337  0.00  0.00    -0.241 OA
ENDBRANCH   3  22
TORSDOF 7
ENDMDL
