MODEL 1
REMARK VINA RESULT:      -6.2      0.000      0.000
REMARK  7 active torsions:
REMARK  status: ('A' for Active; 'I' for Inactive)
REMARK    1  A    between atoms: C_2  and  C_3 
REMARK    2  A    between atoms: C_3  and  O_6 
REMARK    3  A    between atoms: C_3  and  C_4 
REMARK    4  A    between atoms: C_7  and  O_6 
REMARK    5  A    between atoms: C_9  and  C_10 
REMARK    6  A    between atoms: N_15  and  C_14 
REMARK    7  A    between atoms: N_20  and  C_19 
REMARK       I    between atoms: C_22  and  N_20 
ROOT
ATOM      1  C   LIG d   1      -7.605  77.240 117.802  0.00  0.00     0.161 C 
ATOM      2  C   LIG d   1      -8.700  78.090 118.029  0.00  0.00     0.016 C 
ATOM      3  C   LIG d   1      -8.581  79.491 118.174  0.00  0.00     0.038 C 
ATOM      4  C   LIG d   1      -7.369  80.159 117.951  0.00  0.00     0.028 C 
ATOM      5  C   LIG d   1      -6.142  79.294 118.217  0.00  0.00    -0.047 C 
ATOM      6  C   LIG d   1      -6.289  77.963 117.445  0.00  0.00     0.091 C 
ENDROOT
BRANCH   1   7
ATOM      7  O   LIG d   1      -7.937  76.274 116.786  0.00  0.00    -0.368 OA
BRANCH   7   8
ATOM      8  C   LIG d   1      -8.158  74.917 117.244  0.00  0.00     0.119 C 
BRANCH   8   9
ATOM      9  C   LIG d   1      -7.184  74.005 116.473  0.00  0.00     0.028 C 
ATOM     10  C   LIG d   1      -6.518  74.724 115.288  0.00  0.00     0.006 C 
ENDBRANCH   8   9
BRANCH   8  11
ATOM     11  C   LIG d   1      -9.559  74.424 116.869  0.00  0.00     0.028 C 
ATOM     12  C   LIG d   1      -9.602  72.914 116.585  0.00  0.00     0.006 C 
ENDBRANCH   8  11
ENDBRANCH   7   8
ENDBRANCH   1   7
BRANCH   6  13
ATOM     13  N   LIG d   1      -5.171  77.023 117.717  0.00  0.00    -0.311 N 
ATOM     14  C   LIG d   1      -4.077  76.945 116.961  0.00  0.00     0.210 C 
ATOM     15  C   LIG d   1      -3.056  75.894 117.407  0.00  0.00     0.109 C 
ATOM     16  O   LIG d   1      -3.842  77.669 115.982  0.00  0.00    -0.276 OA
ATOM     17  H   LIG d   1      -5.265  76.420 118.511  0.00  0.00     0.149 HD
ENDBRANCH   6  13
BRANCH   5  18
ATOM     18  N   LIG d   1      -4.953  80.069 117.814  0.00  0.00     0.381 N 
ATOM     19  H   LIG d   1      -4.751  80.763 118.505  0.00  0.00    -0.090 HD
ATOM     20  H   LIG d   1      -5.149  80.535 116.945  0.00  0.00    -0.090 HD
ATOM     21  H   LIG d   1      -4.171  79.461 117.704  0.00  0.00    -0.090 HD
ENDBRANCH   5  18
BRANCH   3  22
ATOM     22  C   LIG d   1      -9.677  80.235 118.586  0.00  0.00     0.382 C 
ATOM     23  O   LIG d   1     -10.156  80.062 119.733  0.00  0.00    -0.241 OA
ATOM     24  O   LIG d   1     -10.220  81.043 117.810  0.00  0.00    -0.241 OA
ENDBRANCH   3  22
TORSDOF 7
ENDMDL
MODEL 2
REMARK VINA RESULT:      -5.9      2.103      5.487
REMARK  7 active torsions:
REMARK  status: ('A' for Active; 'I' for Inactive)
REMARK    1  A    between atoms: C_2  and  C_3 
REMARK    2  A    between atoms: C_3  and  O_6 
REMARK    3  A    between atoms: C_3  and  C_4 
REMARK    4  A    between atoms: C_7  and  O_6 
REMARK    5  A    between atoms: C_9  and  C_10 
REMARK    6  A    between atoms: N_15  and  C_14 
REMARK    7  A    between atoms: N_20  and  C_19 
REMARK       I    between atoms: C_22  and  N_20 
ROOT
ATOM      1  C   LIG d   1      -5.664  75.862 116.624  0.00  0.00     0.161 C 
ATOM      2  C   LIG d   1      -6.298  74.666 116.251  0.00  0.00     0.016 C 
ATOM      3  C   LIG d   1      -7.671  74.410 116.475  0.00  0.00     0.038 C 
ATOM      4  C   LIG d   1      -8.541  75.400 116.954  0.00  0.00     0.028 C 
ATOM      5  C   LIG d   1      -7.847  76.452 117.813  0.00  0.00    -0.047 C 
ATOM      6  C   LIG d   1      -6.621  76.997 117.047  0.00  0.00     0.091 C 
ENDROOT
BRANCH   1   7
ATOM      7  O   LIG d   1      -4.797  76.308 115.562  0.00  0.00    -0.368 OA
BRANCH   7   8
ATOM      8  C   LIG d   1      -3.389  76.007 115.720  0.00  0.00     0.119 C 
BRANCH   8   9
ATOM      9  C   LIG d   1      -3.097  75.939 117.231  0.00  0.00     0.028 C 
ATOM     10  C   LIG d   1      -2.023  74.894 117.575  0.00  0.00     0.006 C 
ENDBRANCH   8   9
BRANCH   8  11
ATOM     11  C   LIG d   1      -2.513  77.145 115.188  0.00  0.00     0.028 C 
ATOM     12  C   LIG d   1      -2.711  78.460 115.959  0.00  0.00     0.006 C 
ENDBRANCH   8  11
ENDBRANCH   7   8
ENDBRANCH   1   7
BRANCH   6  13
ATOM     13  N   LIG d   1      -5.836  77.970 117.851  0.00  0.00    -0.311 N 
ATOM     14  C   LIG d   1      -6.094  79.277 117.875  0.00  0.00     0.210 C 
ATOM     15  C   LIG d   1      -5.151  80.105 118.754  0.00  0.00     0.109 C 
ATOM     16  O   LIG d   1      -7.033  79.824 117.278  0.00  0.00    -0.276 OA
ATOM     17  H   LIG d   1      -5.075  77.608 118.390  0.00  0.00     0.149 HD
ENDBRANCH   6  13
BRANCH   5  18
ATOM     18  N   LIG d   1      -8.841  77.495 118.130  0.00  0.00     0.381 N 
ATOM     19  H   LIG d   1      -8.631  77.904 119.019  0.00  0.00    -0.090 HD
ATOM     20  H   LIG d   1      -9.751  77.071 118.186  0.00  0.00    -0.090 HD
ATOM     21  H   LIG d   1      -8.836  78.197 117.423  0.00  0.00    -0.090 HD
ENDBRANCH   5  18
BRANCH   3  22
ATOM     22  C   LIG d   1      -8.177  73.138 116.255  0.00  0.00     0.382 C 
ATOM     23  O   LIG d   1      -7.428  72.231 115.821  0.00  0.00    -0.241 OA
ATOM     24  O   LIG d   1      -9.385  72.898 116.445  0.00  0.00    -0.241 OA
ENDBRANCH   3  22
TORSDOF 7
ENDMDL
MODEL 3
REMARK VINA RESULT:      -5.5     18.634     20.050
REMARK  7 active torsions:
REMARK  status: ('A' for Active; 'I' for Inactive)
REMARK    1  A    between atoms: C_2  and  C_3 
REMARK    2  A    between atoms: C_3  and  O_6 
REMARK    3  A    between atoms: C_3  and  C_4 
REMARK    4  A    between atoms: C_7  and  O_6 
REMARK    5  A    between atoms: C_9  and  C_10 
REMARK    6  A    between atoms: N_15  and  C_14 
REMARK    7  A    between atoms: N_20  and  C_19 
REMARK       I    between atoms: C_22  and  N_20 
ROOT
ATOM      1  C   LIG d   1      -0.328  59.392 118.439  0.00  0.00     0.161 C 
ATOM      2  C   LIG d   1      -1.242  58.734 119.278  0.00  0.00     0.016 C 
ATOM      3  C   LIG d   1      -2.531  58.329 118.861  0.00  0.00     0.038 C 
ATOM      4  C   LIG d   1      -2.939  58.422 117.522  0.00  0.00     0.028 C 
ATOM      5  C   LIG d   1      -2.242  59.539 116.752  0.00  0.00    -0.047 C 
ATOM      6  C   LIG d   1      -0.714  59.403 116.945  0.00  0.00     0.091 C 
ENDROOT
BRANCH   1   7
ATOM      7  O   LIG d   1       0.988  58.830 118.613  0.00  0.00    -0.368 OA
BRANCH   7   8
ATOM      8  C   LIG d   1       1.556  58.938 119.941  0.00  0.00     0.119 C 
BRANCH   8   9
ATOM      9  C   LIG d   1       2.470  60.179 119.954  0.00  0.00     0.028 C 
ATOM     10  C   LIG d   1       2.408  60.939 121.290  0.00  0.00     0.006 C 
ENDBRANCH   8   9
BRANCH   8  11
ATOM     11  C   LIG d   1       2.477  57.753 120.251  0.00  0.00     0.028 C 
ATOM     12  C   LIG d   1       1.853  56.400 119.874  0.00  0.00     0.006 C 
ENDBRANCH   8  11
ENDBRANCH   7   8
ENDBRANCH   1   7
BRANCH   6  13
ATOM     13  N   LIG d   1       0.040  60.505 116.294  0.00  0.00    -0.311 N 
ATOM     14  C   LIG d   1       0.341  60.521 114.996  0.00  0.00     0.210 C 
ATOM     15  C   LIG d   1       1.142  61.742 114.533  0.00  0.00     0.109 C 
ATOM     16  O   LIG d   1      -0.007  59.656 114.179  0.00  0.00    -0.276 OA
ATOM     17  H   LIG d   1       0.335  61.264 116.877  0.00  0.00     0.149 HD
ENDBRANCH   6  13
BRANCH   5  18
ATOM     18  N   LIG d   1      -2.657  59.434 115.340  0.00  0.00     0.381 N 
ATOM     19  H   LIG d   1      -2.706  60.346 114.933  0.00  0.00    -0.090 HD
ATOM     20  H   LIG d   1      -3.573  59.022 115.301  0.00  0.00    -0.090 HD
ATOM     21  H   LIG d   1      -2.010  58.871 114.835  0.00  0.00    -0.090 HD
ENDBRANCH   5  18
BRANCH   3  22
ATOM     22  C   LIG d   1      -3.441  57.862 119.796  0.00  0.00     0.382 C 
ATOM     23  O   LIG d   1      -4.385  57.118 119.435  0.00  0.00    -0.241 OA
ATOM     24  O   LIG d   1      -3.357  58.210 120.989  0.00  0.00    -0.241 OA
ENDBRANCH   3  22
TORSDOF 7
ENDMDL
MODEL 4
REMARK VINA RESULT:      -5.5     18.539     20.968
REMARK  7 active torsions:
REMARK  status: ('A' for Active; 'I' for Inactive)
REMARK    1  A    between atoms: C_2  and  C_3 
REMARK    2  A    between atoms: C_3  and  O_6 
REMARK    3  A    between atoms: C_3  and  C_4 
REMARK    4  A    between atoms: C_7  and  O_6 
REMARK    5  A    between atoms: C_9  and  C_10 
REMARK    6  A    between atoms: N_15  and  C_14 
REMARK    7  A    between atoms: N_20  and  C_19 
REMARK       I    between atoms: C_22  and  N_20 
ROOT
ATOM      1  C   LIG d   1      -0.440  58.449 118.643  0.00  0.00     0.161 C 
ATOM      2  C   LIG d   1      -1.299  59.295 117.922  0.00  0.00     0.016 C 
ATOM      3  C   LIG d   1      -2.131  58.846 116.871  0.00  0.00     0.038 C 
ATOM      4  C   LIG d   1      -2.274  57.484 116.568  0.00  0.00     0.028 C 
ATOM      5  C   LIG d   1      -1.050  56.651 116.932  0.00  0.00    -0.047 C 
ATOM      6  C   LIG d   1      -0.665  56.941 118.401  0.00  0.00     0.091 C 
ENDROOT
BRANCH   1   7
ATOM      7  O   LIG d   1      -0.528  58.748 120.050  0.00  0.00    -0.368 OA
BRANCH   7   8
ATOM      8  C   LIG d   1       0.615  59.425 120.630  0.00  0.00     0.119 C 
BRANCH   8   9
ATOM      9  C   LIG d   1       0.223  60.901 120.836  0.00  0.00     0.028 C 
ATOM     10  C   LIG d   1      -1.233  61.062 121.304  0.00  0.00     0.006 C 
ENDBRANCH   8   9
BRANCH   8  11
ATOM     11  C   LIG d   1       1.799  59.451 119.658  0.00  0.00     0.028 C 
ATOM     12  C   LIG d   1       2.894  60.443 120.081  0.00  0.00     0.006 C 
ENDBRANCH   8  11
ENDBRANCH   7   8
ENDBRANCH   1   7
BRANCH   6  13
ATOM     13  N   LIG d   1       0.573  56.230 118.813  0.00  0.00    -0.311 N 
ATOM     14  C   LIG d   1       0.576  55.169 119.617  0.00  0.00     0.210 C 
ATOM     15  C   LIG d   1       1.963  54.600 119.933  0.00  0.00     0.109 C 
ATOM     16  O   LIG d   1      -0.441  54.624 120.073  0.00  0.00    -0.276 OA
ATOM     17  H   LIG d   1       1.442  56.586 118.464  0.00  0.00     0.149 HD
ENDBRANCH   6  13
BRANCH   5  18
ATOM     18  N   LIG d   1      -1.387  55.235 116.692  0.00  0.00     0.381 N 
ATOM     19  H   LIG d   1      -2.335  55.160 116.383  0.00  0.00    -0.090 HD
ATOM     20  H   LIG d   1      -1.295  54.728 117.555  0.00  0.00    -0.090 HD
ATOM     21  H   LIG d   1      -0.775  54.851 116.006  0.00  0.00    -0.090 HD
ENDBRANCH   5  18
BRANCH   3  22
ATOM     22  C   LIG d   1      -2.802  59.770 116.083  0.00  0.00     0.382 C 
ATOM     23  O   LIG d   1      -2.459  59.942 114.889  0.00  0.00    -0.241 OA
ATOM     24  O   LIG d   1      -3.717  60.465 116.565  0.00  0.00    -0.241 OA
ENDBRANCH   3  22
TORSDOF 7
ENDMDL
MODEL 5
REMARK VINA RESULT:      -5.4      2.274      5.704
REMARK  7 active torsions:
REMARK  status: ('A' for Active; 'I' for Inactive)
REMARK    1  A    between atoms: C_2  and  C_3 
REMARK    2  A    between atoms: C_3  and  O_6 
REMARK    3  A    between atoms: C_3  and  C_4 
REMARK    4  A    between atoms: C_7  and  O_6 
REMARK    5  A    between atoms: C_9  and  C_10 
REMARK    6  A    between atoms: N_15  and  C_14 
REMARK    7  A    between atoms: N_20  and  C_19 
REMARK       I    between atoms: C_22  and  N_20 
ROOT
ATOM      1  C   LIG d   1      -5.785  77.004 117.304  0.00  0.00     0.161 C 
ATOM      2  C   LIG d   1      -5.963  75.761 116.675  0.00  0.00     0.016 C 
ATOM      3  C   LIG d   1      -7.227  75.153 116.496  0.00  0.00     0.038 C 
ATOM      4  C   LIG d   1      -8.422  75.822 116.803  0.00  0.00     0.028 C 
ATOM      5  C   LIG d   1      -8.266  76.866 117.903  0.00  0.00    -0.047 C 
ATOM      6  C   LIG d   1      -7.086  77.799 117.545  0.00  0.00     0.091 C 
ENDROOT
BRANCH   1   7
ATOM      7  O   LIG d   1      -4.843  77.799 116.558  0.00  0.00    -0.368 OA
BRANCH   7   8
ATOM      8  C   LIG d   1      -3.522  77.932 117.137  0.00  0.00     0.119 C 
BRANCH   8   9
ATOM      9  C   LIG d   1      -3.407  79.361 117.704  0.00  0.00     0.028 C 
ATOM     10  C   LIG d   1      -3.009  80.388 116.631  0.00  0.00     0.006 C 
ENDBRANCH   8   9
BRANCH   8  11
ATOM     11  C   LIG d   1      -2.431  77.832 116.067  0.00  0.00     0.028 C 
ATOM     12  C   LIG d   1      -2.767  76.811 114.968  0.00  0.00     0.006 C 
ENDBRANCH   8  11
ENDBRANCH   7   8
ENDBRANCH   1   7
BRANCH   6  13
ATOM     13  N   LIG d   1      -6.811  78.799 118.610  0.00  0.00    -0.311 N 
ATOM     14  C   LIG d   1      -6.881  80.114 118.416  0.00  0.00     0.210 C 
ATOM     15  C   LIG d   1      -6.540  80.968 119.641  0.00  0.00     0.109 C 
ATOM     16  O   LIG d   1      -7.225  80.655 117.354  0.00  0.00    -0.276 OA
ATOM     17  H   LIG d   1      -6.555  78.446 119.512  0.00  0.00     0.149 HD
ENDBRANCH   6  13
BRANCH   5  18
ATOM     18  N   LIG d   1      -9.551  77.581 118.024  0.00  0.00     0.381 N 
ATOM     19  H   LIG d   1      -9.420  78.427 118.541  0.00  0.00    -0.090 HD
ATOM     20  H   LIG d   1     -10.199  77.001 118.528  0.00  0.00    -0.090 HD
ATOM     21  H   LIG d   1      -9.913  77.788 117.119  0.00  0.00    -0.090 HD
ENDBRANCH   5  18
BRANCH   3  22
ATOM     22  C   LIG d   1      -7.303  73.845 116.043  0.00  0.00     0.382 C 
ATOM     23  O   LIG d   1      -8.367  73.194 116.179  0.00  0.00    -0.241 OA
ATOM     24  O   LIG d   1      -6.307  73.292 115.539  0.00  0.00    -0.241 OA
ENDBRANCH   3  22
TORSDOF 7
ENDMDL
MODEL 6
REMARK VINA RESULT:      -5.3     12.269     14.562
REMARK  7 active torsions:
REMARK  status: ('A' for Active; 'I' for Inactive)
REMARK    1  A    between atoms: C_2  and  C_3 
REMARK    2  A    between atoms: C_3  and  O_6 
REMARK    3  A    between atoms: C_3  and  C_4 
REMARK    4  A    between atoms: C_7  and  O_6 
REMARK    5  A    between atoms: C_9  and  C_10 
REMARK    6  A    between atoms: N_15  and  C_14 
REMARK    7  A    between atoms: N_20  and  C_19 
REMARK       I    between atoms: C_22  and  N_20 
ROOT
ATOM      1  C   LIG d   1      -4.902  91.262 117.279  0.00  0.00     0.161 C 
ATOM      2  C   LIG d   1      -4.093  90.113 117.267  0.00  0.00     0.016 C 
ATOM      3  C   LIG d   1      -3.330  89.688 118.379  0.00  0.00     0.038 C 
ATOM      4  C   LIG d   1      -3.443  90.302 119.635  0.00  0.00     0.028 C 
ATOM      5  C   LIG d   1      -3.861  91.767 119.557  0.00  0.00    -0.047 C 
ATOM      6  C   LIG d   1      -5.125  91.882 118.674  0.00  0.00     0.091 C 
ENDROOT
BRANCH   1   7
ATOM      7  O   LIG d   1      -6.168  90.974 116.651  0.00  0.00    -0.368 OA
BRANCH   7   8
ATOM      8  C   LIG d   1      -6.239  89.739 115.897  0.00  0.00     0.119 C 
BRANCH   8   9
ATOM      9  C   LIG d   1      -6.621  90.101 114.449  0.00  0.00     0.028 C 
ATOM     10  C   LIG d   1      -6.566  91.616 114.189  0.00  0.00     0.006 C 
ENDBRANCH   8   9
BRANCH   8  11
ATOM     11  C   LIG d   1      -7.373  88.843 116.404  0.00  0.00     0.028 C 
ATOM     12  C   LIG d   1      -8.766  89.407 116.085  0.00  0.00     0.006 C 
ENDBRANCH   8  11
ENDBRANCH   7   8
ENDBRANCH   1   7
BRANCH   6  13
ATOM     13  N   LIG d   1      -5.552  93.291 118.477  0.00  0.00    -0.311 N 
ATOM     14  C   LIG d   1      -6.392  93.924 119.295  0.00  0.00     0.210 C 
ATOM     15  C   LIG d   1      -6.717  95.368 118.898  0.00  0.00     0.109 C 
ATOM     16  O   LIG d   1      -6.875  93.437 120.328  0.00  0.00    -0.276 OA
ATOM     17  H   LIG d   1      -5.184  93.772 117.680  0.00  0.00     0.149 HD
ENDBRANCH   6  13
BRANCH   5  18
ATOM     18  N   LIG d   1      -4.075  92.243 120.937  0.00  0.00     0.381 N 
ATOM     19  H   LIG d   1      -3.654  93.143 121.054  0.00  0.00    -0.090 HD
ATOM     20  H   LIG d   1      -3.633  91.603 121.574  0.00  0.00    -0.090 HD
ATOM     21  H   LIG d   1      -5.050  92.296 121.132  0.00  0.00    -0.090 HD
ENDBRANCH   5  18
BRANCH   3  22
ATOM     22  C   LIG d   1      -2.411  88.660 118.228  0.00  0.00     0.382 C 
ATOM     23  O   LIG d   1      -1.450  88.790 117.433  0.00  0.00    -0.241 OA
ATOM     24  O   LIG d   1      -2.557  87.587 118.845  0.00  0.00    -0.241 OA
ENDBRANCH   3  22
TORSDOF 7
ENDMDL
MODEL 7
REMARK VINA RESULT:      -5.2     12.466     14.341
REMARK  7 active torsions:
REMARK  status: ('A' for Active; 'I' for Inactive)
REMARK    1  A    between atoms: C_2  and  C_3 
REMARK    2  A    between atoms: C_3  and  O_6 
REMARK    3  A    between atoms: C_3  and  C_4 
REMARK    4  A    between atoms: C_7  and  O_6 
REMARK    5  A    between atoms: C_9  and  C_10 
REMARK    6  A    between atoms: N_15  and  C_14 
REMARK    7  A    between atoms: N_20  and  C_19 
REMARK       I    between atoms: C_22  and  N_20 
ROOT
ATOM      1  C   LIG d   1      -5.607  91.362 117.490  0.00  0.00     0.161 C 
ATOM      2  C   LIG d   1      -6.421  92.493 117.663  0.00  0.00     0.016 C 
ATOM      3  C   LIG d   1      -6.199  93.466 118.664  0.00  0.00     0.038 C 
ATOM      4  C   LIG d   1      -5.052  93.452 119.471  0.00  0.00     0.028 C 
ATOM      5  C   LIG d   1      -4.469  92.057 119.670  0.00  0.00    -0.047 C 
ATOM      6  C   LIG d   1      -4.287  91.388 118.289  0.00  0.00     0.091 C 
ENDROOT
BRANCH   1   7
ATOM      7  O   LIG d   1      -5.341  91.161 116.088  0.00  0.00    -0.368 OA
BRANCH   7   8
ATOM      8  C   LIG d   1      -5.770  89.893 115.533  0.00  0.00     0.119 C 
BRANCH   8   9
ATOM      9  C   LIG d   1      -6.670  90.200 114.321  0.00  0.00     0.028 C 
ATOM     10  C   LIG d   1      -6.644  91.687 113.932  0.00  0.00     0.006 C 
ENDBRANCH   8   9
BRANCH   8  11
ATOM     11  C   LIG d   1      -6.661  89.128 116.517  0.00  0.00     0.028 C 
ATOM     12  C   LIG d   1      -8.125  89.047 116.055  0.00  0.00     0.006 C 
ENDBRANCH   8  11
ENDBRANCH   7   8
ENDBRANCH   1   7
BRANCH   6  13
ATOM     13  N   LIG d   1      -3.799  89.988 118.397  0.00  0.00    -0.311 N 
ATOM     14  C   LIG d   1      -2.514  89.650 118.311  0.00  0.00     0.210 C 
ATOM     15  C   LIG d   1      -2.230  88.150 118.430  0.00  0.00     0.109 C 
ATOM     16  O   LIG d   1      -1.579  90.454 118.180  0.00  0.00    -0.276 OA
ATOM     17  H   LIG d   1      -4.488  89.274 118.536  0.00  0.00     0.149 HD
ENDBRANCH   6  13
BRANCH   5  18
ATOM     18  N   LIG d   1      -3.203  92.205 120.412  0.00  0.00     0.381 N 
ATOM     19  H   LIG d   1      -3.059  93.166 120.649  0.00  0.00    -0.090 HD
ATOM     20  H   LIG d   1      -2.444  91.909 119.823  0.00  0.00    -0.090 HD
ATOM     21  H   LIG d   1      -3.226  91.651 121.240  0.00  0.00    -0.090 HD
ENDBRANCH   5  18
BRANCH   3  22
ATOM     22  C   LIG d   1      -7.153  94.446 118.894  0.00  0.00     0.382 C 
ATOM     23  O   LIG d   1      -7.102  95.139 119.939  0.00  0.00    -0.241 OA
ATOM     24  O   LIG d   1      -8.090  94.617 118.090  0.00  0.00    -0.241 OA
ENDBRANCH   3  22
TORSDOF 7
ENDMDL
MODEL 8
REMARK VINA RESULT:      -5.0     12.038     14.193
REMARK  7 active torsions:
REMARK  status: ('A' for Active; 'I' for Inactive)
REMARK    1  A    between atoms: C_2  and  C_3 
REMARK    2  A    between atoms: C_3  and  O_6 
REMARK    3  A    between atoms: C_3  and  C_4 
REMARK    4  A    between atoms: C_7  and  O_6 
REMARK    5  A    between atoms: C_9  and  C_10 
REMARK    6  A    between atoms: N_15  and  C_14 
REMARK    7  A    between atoms: N_20  and  C_19 
REMARK       I    between atoms: C_22  and  N_20 
ROOT
ATOM      1  C   LIG d   1      -4.252  90.562 118.048  0.00  0.00     0.161 C 
ATOM      2  C   LIG d   1      -4.795  91.722 118.626  0.00  0.00     0.016 C 
ATOM      3  C   LIG d   1      -4.021  92.682 119.316  0.00  0.00     0.038 C 
ATOM      4  C   LIG d   1      -2.619  92.623 119.345  0.00  0.00     0.028 C 
ATOM      5  C   LIG d   1      -2.070  91.207 119.210  0.00  0.00    -0.047 C 
ATOM      6  C   LIG d   1      -2.711  90.537 117.974  0.00  0.00     0.091 C 
ENDROOT
BRANCH   1   7
ATOM      7  O   LIG d   1      -4.821  90.356 116.740  0.00  0.00    -0.368 OA
BRANCH   7   8
ATOM      8  C   LIG d   1      -6.262  90.475 116.645  0.00  0.00     0.119 C 
BRANCH   8   9
ATOM      9  C   LIG d   1      -6.783  89.215 115.927  0.00  0.00     0.028 C 
ATOM     10  C   LIG d   1      -8.240  88.888 116.299  0.00  0.00     0.006 C 
ENDBRANCH   8   9
BRANCH   8  11
ATOM     11  C   LIG d   1      -6.666  91.649 115.748  0.00  0.00     0.028 C 
ATOM     12  C   LIG d   1      -6.460  91.355 114.254  0.00  0.00     0.006 C 
ENDBRANCH   8  11
ENDBRANCH   7   8
ENDBRANCH   1   7
BRANCH   6  13
ATOM     13  N   LIG d   1      -2.292  89.120 117.816  0.00  0.00    -0.311 N 
ATOM     14  C   LIG d   1      -1.227  88.744 117.109  0.00  0.00     0.210 C 
ATOM     15  C   LIG d   1      -0.984  87.233 117.059  0.00  0.00     0.109 C 
ATOM     16  O   LIG d   1      -0.443  89.522 116.545  0.00  0.00    -0.276 OA
ATOM     17  H   LIG d   1      -2.854  88.425 118.267  0.00  0.00     0.149 HD
ENDBRANCH   6  13
BRANCH   5  18
ATOM     18  N   LIG d   1      -0.601  91.307 119.117  0.00  0.00     0.381 N 
ATOM     19  H   LIG d   1      -0.320  91.277 118.157  0.00  0.00    -0.090 HD
ATOM     20  H   LIG d   1      -0.192  90.520 119.590  0.00  0.00    -0.090 HD
ATOM     21  H   LIG d   1      -0.289  92.155 119.536  0.00  0.00    -0.090 HD
ENDBRANCH   5  18
BRANCH   3  22
ATOM     22  C   LIG d   1      -4.652  93.696 120.022  0.00  0.00     0.382 C 
ATOM     23  O   LIG d   1      -5.867  93.936 119.821  0.00  0.00    -0.241 OA
ATOM     24  O   LIG d   1      -4.011  94.402 120.823  0.00  0.00    -0.241 OA
ENDBRANCH   3  22
TORSDOF 7
ENDMDL
MODEL 9
REMARK VINA RESULT:      -4.9     12.782     15.177
REMARK  7 active torsions:
REMARK  status: ('A' for Active; 'I' for Inactive)
REMARK    1  A    between atoms: C_2  and  C_3 
REMARK    2  A    between atoms: C_3  and  O_6 
REMARK    3  A    between atoms: C_3  and  C_4 
REMARK    4  A    between atoms: C_7  and  O_6 
REMARK    5  A    between atoms: C_9  and  C_10 
REMARK    6  A    between atoms: N_15  and  C_14 
REMARK    7  A    between atoms: N_20  and  C_19 
REMARK       I    between atoms: C_22  and  N_20 
ROOT
ATOM      1  C   LIG d   1      -4.483  91.747 118.180  0.00  0.00     0.161 C 
ATOM      2  C   LIG d   1      -5.444  91.742 117.156  0.00  0.00     0.016 C 
ATOM      3  C   LIG d   1      -5.573  90.695 116.214  0.00  0.00     0.038 C 
ATOM      4  C   LIG d   1      -4.842  89.503 116.327  0.00  0.00     0.028 C 
ATOM      5  C   LIG d   1      -3.508  89.675 117.045  0.00  0.00    -0.047 C 
ATOM      6  C   LIG d   1      -3.751  90.404 118.387  0.00  0.00     0.091 C 
ENDROOT
BRANCH   1   7
ATOM      7  O   LIG d   1      -5.086  92.183 119.414  0.00  0.00    -0.368 OA
BRANCH   7   8
ATOM      8  C   LIG d   1      -4.963  93.594 119.720  0.00  0.00     0.119 C 
BRANCH   8   9
ATOM      9  C   LIG d   1      -4.122  93.718 121.006  0.00  0.00     0.028 C 
ATOM     10  C   LIG d   1      -2.700  94.233 120.730  0.00  0.00     0.006 C 
ENDBRANCH   8   9
BRANCH   8  11
ATOM     11  C   LIG d   1      -6.322  94.211 120.063  0.00  0.00     0.028 C 
ATOM     12  C   LIG d   1      -7.115  94.635 118.816  0.00  0.00     0.006 C 
ENDBRANCH   8  11
ENDBRANCH   7   8
ENDBRANCH   1   7
BRANCH   6  13
ATOM     13  N   LIG d   1      -2.487  90.688 119.114  0.00  0.00    -0.311 N 
ATOM     14  C   LIG d   1      -2.333  90.489 120.422  0.00  0.00     0.210 C 
ATOM     15  C   LIG d   1      -0.955  90.866 120.976  0.00  0.00     0.109 C 
ATOM     16  O   LIG d   1      -3.196  90.006 121.170  0.00  0.00    -0.276 OA
ATOM     17  H   LIG d   1      -1.724  91.053 118.578  0.00  0.00     0.149 HD
ENDBRANCH   6  13
BRANCH   5  18
ATOM     18  N   LIG d   1      -2.917  88.335 117.214  0.00  0.00     0.381 N 
ATOM     19  H   LIG d   1      -2.732  87.930 116.318  0.00  0.00    -0.090 HD
ATOM     20  H   LIG d   1      -3.575  87.747 117.696  0.00  0.00    -0.090 HD
ATOM     21  H   LIG d   1      -2.072  88.398 117.739  0.00  0.00    -0.090 HD
ENDBRANCH   5  18
BRANCH   3  22
ATOM     22  C   LIG d   1      -6.412  90.852 115.122  0.00  0.00     0.382 C 
ATOM     23  O   LIG d   1      -6.240  91.811 114.332  0.00  0.00    -0.241 OA
ATOM     24  O   LIG d   1      -7.368  90.073 114.942  0.00  0.00    -0.241 OA
ENDBRANCH   3  22
TORSDOF 7
ENDMDL
