MODEL 1
REMARK VINA RESULT:      -5.8      0.000      0.000
REMARK  7 active torsions:
REMARK  status: ('A' for Active; 'I' for Inactive)
REMARK    1  A    between atoms: C_2  and  C_3 
REMARK    2  A    between atoms: C_3  and  O_6 
REMARK    3  A    between atoms: C_3  and  C_4 
REMARK    4  A    between atoms: C_7  and  O_6 
REMARK    5  A    between atoms: C_9  and  C_10 
REMARK    6  A    between atoms: N_15  and  C_14 
REMARK    7  A    between atoms: N_20  and  C_19 
REMARK       I    between atoms: C_22  and  N_20 
ROOT
ATOM      1  C   LIG d   1      -7.933  75.779 116.932  0.00  0.00     0.161 C 
ATOM      2  C   LIG d   1      -7.144  75.390 115.837  0.00  0.00     0.016 C 
ATOM      3  C   LIG d   1      -5.887  75.965 115.539  0.00  0.00     0.038 C 
ATOM      4  C   LIG d   1      -5.262  76.871 116.409  0.00  0.00     0.028 C 
ATOM      5  C   LIG d   1      -6.244  77.668 117.262  0.00  0.00    -0.047 C 
ATOM      6  C   LIG d   1      -7.218  76.687 117.954  0.00  0.00     0.091 C 
ENDROOT
BRANCH   1   7
ATOM      7  O   LIG d   1      -8.470  74.613 117.587  0.00  0.00    -0.368 OA
BRANCH   7   8
ATOM      8  C   LIG d   1      -9.871  74.335 117.345  0.00  0.00     0.119 C 
BRANCH   8   9
ATOM      9  C   LIG d   1     -10.648  74.734 118.614  0.00  0.00     0.028 C 
ATOM     10  C   LIG d   1     -11.559  75.952 118.386  0.00  0.00     0.006 C 
ENDBRANCH   8   9
BRANCH   8  11
ATOM     11  C   LIG d   1     -10.119  72.833 117.173  0.00  0.00     0.028 C 
ATOM     12  C   LIG d   1      -8.819  72.027 117.032  0.00  0.00     0.006 C 
ENDBRANCH   8  11
ENDBRANCH   7   8
ENDBRANCH   1   7
BRANCH   6  13
ATOM     13  N   LIG d   1      -8.264  77.389 118.742  0.00  0.00    -0.311 N 
ATOM     14  C   LIG d   1      -8.163  77.626 120.048  0.00  0.00     0.210 C 
ATOM     15  C   LIG d   1      -9.364  78.346 120.670  0.00  0.00     0.109 C 
ATOM     16  O   LIG d   1      -7.179  77.336 120.745  0.00  0.00    -0.276 OA
ATOM     17  H   LIG d   1      -9.084  77.687 118.249  0.00  0.00     0.149 HD
ENDBRANCH   6  13
BRANCH   5  18
ATOM     18  N   LIG d   1      -5.456  78.470 118.216  0.00  0.00     0.381 N 
ATOM     19  H   LIG d   1      -4.493  78.202 118.170  0.00  0.00    -0.090 HD
ATOM     20  H   LIG d   1      -5.790  78.289 119.146  0.00  0.00    -0.090 HD
ATOM     21  H   LIG d   1      -5.549  79.440 118.005  0.00  0.00    -0.090 HD
ENDBRANCH   5  18
BRANCH   3  22
ATOM     22  C   LIG d   1      -5.261  75.665 114.339  0.00  0.00     0.382 C 
ATOM     23  O   LIG d   1      -5.415  76.417 113.346  0.00  0.00    -0.241 OA
ATOM     24  O   LIG d   1      -4.579  74.629 114.224  0.00  0.00    -0.241 OA
ENDBRANCH   3  22
TORSDOF 7
ENDMDL
MODEL 2
REMARK VINA RESULT:      -5.8      0.445      1.917
REMARK  7 active torsions:
REMARK  status: ('A' for Active; 'I' for Inactive)
REMARK    1  A    between atoms: C_2  and  C_3 
REMARK    2  A    between atoms: C_3  and  O_6 
REMARK    3  A    between atoms: C_3  and  C_4 
REMARK    4  A    between atoms: C_7  and  O_6 
REMARK    5  A    between atoms: C_9  and  C_10 
REMARK    6  A    between atoms: N_15  and  C_14 
REMARK    7  A    between atoms: N_20  and  C_19 
REMARK       I    between atoms: C_22  and  N_20 
ROOT
ATOM      1  C   LIG d   1      -7.979  75.490 117.153  0.00  0.00     0.161 C 
ATOM      2  C   LIG d   1      -7.260  75.156 115.994  0.00  0.00     0.016 C 
ATOM      3  C   LIG d   1      -6.095  75.840 115.576  0.00  0.00     0.038 C 
ATOM      4  C   LIG d   1      -5.481  76.815 116.377  0.00  0.00     0.028 C 
ATOM      5  C   LIG d   1      -6.451  77.532 117.309  0.00  0.00    -0.047 C 
ATOM      6  C   LIG d   1      -7.261  76.478 118.097  0.00  0.00     0.091 C 
ENDROOT
BRANCH   1   7
ATOM      7  O   LIG d   1      -8.342  74.291 117.866  0.00  0.00    -0.368 OA
BRANCH   7   8
ATOM      8  C   LIG d   1      -9.756  73.974 117.900  0.00  0.00     0.119 C 
BRANCH   8   9
ATOM      9  C   LIG d   1      -9.970  72.720 117.030  0.00  0.00     0.028 C 
ATOM     10  C   LIG d   1      -8.755  71.777 117.049  0.00  0.00     0.006 C 
ENDBRANCH   8   9
BRANCH   8  11
ATOM     11  C   LIG d   1     -10.590  75.074 117.238  0.00  0.00     0.028 C 
ATOM     12  C   LIG d   1     -11.527  75.788 118.226  0.00  0.00     0.006 C 
ENDBRANCH   8  11
ENDBRANCH   7   8
ENDBRANCH   1   7
BRANCH   6  13
ATOM     13  N   LIG d   1      -8.293  77.094 118.972  0.00  0.00    -0.311 N 
ATOM     14  C   LIG d   1      -8.066  77.448 120.236  0.00  0.00     0.210 C 
ATOM     15  C   LIG d   1      -9.272  78.047 120.966  0.00  0.00     0.109 C 
ATOM     16  O   LIG d   1      -6.972  77.351 120.812  0.00  0.00    -0.276 OA
ATOM     17  H   LIG d   1      -9.201  77.237 118.575  0.00  0.00     0.149 HD
ENDBRANCH   6  13
BRANCH   5  18
ATOM     18  N   LIG d   1      -5.657  78.420 118.180  0.00  0.00     0.381 N 
ATOM     19  H   LIG d   1      -5.213  77.883 118.897  0.00  0.00    -0.090 HD
ATOM     20  H   LIG d   1      -6.274  79.081 118.618  0.00  0.00    -0.090 HD
ATOM     21  H   LIG d   1      -4.971  78.901 117.641  0.00  0.00    -0.090 HD
ENDBRANCH   5  18
BRANCH   3  22
ATOM     22  C   LIG d   1      -5.555  75.578 114.326  0.00  0.00     0.382 C 
ATOM     23  O   LIG d   1      -4.831  74.568 114.155  0.00  0.00    -0.241 OA
ATOM     24  O   LIG d   1      -5.747  76.363 113.378  0.00  0.00    -0.241 OA
ENDBRANCH   3  22
TORSDOF 7
ENDMDL
MODEL 3
REMARK VINA RESULT:      -5.5      2.096      4.775
REMARK  7 active torsions:
REMARK  status: ('A' for Active; 'I' for Inactive)
REMARK    1  A    between atoms: C_2  and  C_3 
REMARK    2  A    between atoms: C_3  and  O_6 
REMARK    3  A    between atoms: C_3  and  C_4 
REMARK    4  A    between atoms: C_7  and  O_6 
REMARK    5  A    between atoms: C_9  and  C_10 
REMARK    6  A    between atoms: N_15  and  C_14 
REMARK    7  A    between atoms: N_20  and  C_19 
REMARK       I    between atoms: C_22  and  N_20 
ROOT
ATOM      1  C   LIG d   1      -7.818  75.488 117.908  0.00  0.00     0.161 C 
ATOM      2  C   LIG d   1      -7.925  74.192 117.377  0.00  0.00     0.016 C 
ATOM      3  C   LIG d   1      -9.118  73.434 117.410  0.00  0.00     0.038 C 
ATOM      4  C   LIG d   1     -10.333  73.983 117.844  0.00  0.00     0.028 C 
ATOM      5  C   LIG d   1     -10.161  75.112 118.854  0.00  0.00    -0.047 C 
ATOM      6  C   LIG d   1      -9.162  76.145 118.286  0.00  0.00     0.091 C 
ENDROOT
BRANCH   1   7
ATOM      7  O   LIG d   1      -7.087  76.331 116.996  0.00  0.00    -0.368 OA
BRANCH   7   8
ATOM      8  C   LIG d   1      -5.690  76.000 116.802  0.00  0.00     0.119 C 
BRANCH   8   9
ATOM      9  C   LIG d   1      -4.855  77.079 117.518  0.00  0.00     0.028 C 
ATOM     10  C   LIG d   1      -5.504  78.471 117.440  0.00  0.00     0.006 C 
ENDBRANCH   8   9
BRANCH   8  11
ATOM     11  C   LIG d   1      -5.294  76.095 115.326  0.00  0.00     0.028 C 
ATOM     12  C   LIG d   1      -5.350  74.738 114.606  0.00  0.00     0.006 C 
ENDBRANCH   8  11
ENDBRANCH   7   8
ENDBRANCH   1   7
BRANCH   6  13
ATOM     13  N   LIG d   1      -8.872  77.241 119.247  0.00  0.00    -0.311 N 
ATOM     14  C   LIG d   1      -9.570  78.374 119.299  0.00  0.00     0.210 C 
ATOM     15  C   LIG d   1      -9.092  79.381 120.351  0.00  0.00     0.109 C 
ATOM     16  O   LIG d   1     -10.560  78.628 118.597  0.00  0.00    -0.276 OA
ATOM     17  H   LIG d   1      -8.104  77.106 119.876  0.00  0.00     0.149 HD
ENDBRANCH   6  13
BRANCH   5  18
ATOM     18  N   LIG d   1     -11.496  75.683 119.116  0.00  0.00     0.381 N 
ATOM     19  H   LIG d   1     -11.901  76.004 118.260  0.00  0.00    -0.090 HD
ATOM     20  H   LIG d   1     -11.398  76.470 119.733  0.00  0.00    -0.090 HD
ATOM     21  H   LIG d   1     -12.085  74.996 119.534  0.00  0.00    -0.090 HD
ENDBRANCH   5  18
BRANCH   3  22
ATOM     22  C   LIG d   1      -9.093  72.097 117.041  0.00  0.00     0.382 C 
ATOM     23  O   LIG d   1      -8.015  71.566 116.681  0.00  0.00    -0.241 OA
ATOM     24  O   LIG d   1     -10.143  71.428 117.022  0.00  0.00    -0.241 OA
ENDBRANCH   3  22
TORSDOF 7
ENDMDL
MODEL 4
REMARK VINA RESULT:      -5.1      2.444      4.021
REMARK  7 active torsions:
REMARK  status: ('A' for Active; 'I' for Inactive)
REMARK    1  A    between atoms: C_2  and  C_3 
REMARK    2  A    between atoms: C_3  and  O_6 
REMARK    3  A    between atoms: C_3  and  C_4 
REMARK    4  A    between atoms: C_7  and  O_6 
REMARK    5  A    between atoms: C_9  and  C_10 
REMARK    6  A    between atoms: N_15  and  C_14 
REMARK    7  A    between atoms: N_20  and  C_19 
REMARK       I    between atoms: C_22  and  N_20 
ROOT
ATOM      1  C   LIG d   1      -8.454  75.809 118.442  0.00  0.00     0.161 C 
ATOM      2  C   LIG d   1      -8.862  74.482 118.226  0.00  0.00     0.016 C 
ATOM      3  C   LIG d   1      -8.186  73.591 117.361  0.00  0.00     0.038 C 
ATOM      4  C   LIG d   1      -6.960  73.923 116.766  0.00  0.00     0.028 C 
ATOM      5  C   LIG d   1      -6.775  75.422 116.555  0.00  0.00    -0.047 C 
ATOM      6  C   LIG d   1      -7.056  76.154 117.888  0.00  0.00     0.091 C 
ENDROOT
BRANCH   1   7
ATOM      7  O   LIG d   1      -8.526  76.120 119.848  0.00  0.00    -0.368 OA
BRANCH   7   8
ATOM      8  C   LIG d   1      -9.552  77.064 120.240  0.00  0.00     0.119 C 
BRANCH   8   9
ATOM      9  C   LIG d   1     -10.683  76.266 120.916  0.00  0.00     0.028 C 
ATOM     10  C   LIG d   1     -11.856  75.985 119.962  0.00  0.00     0.006 C 
ENDBRANCH   8   9
BRANCH   8  11
ATOM     11  C   LIG d   1     -10.197  77.726 119.019  0.00  0.00     0.028 C 
ATOM     12  C   LIG d   1     -10.058  79.256 119.026  0.00  0.00     0.006 C 
ENDBRANCH   8  11
ENDBRANCH   7   8
ENDBRANCH   1   7
BRANCH   6  13
ATOM     13  N   LIG d   1      -6.979  77.632 117.749  0.00  0.00    -0.311 N 
ATOM     14  C   LIG d   1      -6.282  78.410 118.576  0.00  0.00     0.210 C 
ATOM     15  C   LIG d   1      -6.353  79.909 118.266  0.00  0.00     0.109 C 
ATOM     16  O   LIG d   1      -5.586  77.999 119.516  0.00  0.00    -0.276 OA
ATOM     17  H   LIG d   1      -7.490  78.047 116.994  0.00  0.00     0.149 HD
ENDBRANCH   6  13
BRANCH   5  18
ATOM     18  N   LIG d   1      -5.404  75.636 116.057  0.00  0.00     0.381 N 
ATOM     19  H   LIG d   1      -5.392  76.403 115.415  0.00  0.00    -0.090 HD
ATOM     20  H   LIG d   1      -5.103  74.811 115.567  0.00  0.00    -0.090 HD
ATOM     21  H   LIG d   1      -4.789  75.822 116.818  0.00  0.00    -0.090 HD
ENDBRANCH   5  18
BRANCH   3  22
ATOM     22  C   LIG d   1      -8.758  72.366 117.053  0.00  0.00     0.382 C 
ATOM     23  O   LIG d   1      -8.029  71.396 116.735  0.00  0.00    -0.241 OA
ATOM     24  O   LIG d   1      -9.997  72.231 117.045  0.00  0.00    -0.241 OA
ENDBRANCH   3  22
TORSDOF 7
ENDMDL
MODEL 5
REMARK VINA RESULT:      -4.9      2.187      4.455
REMARK  7 active torsions:
REMARK  status: ('A' for Active; 'I' for Inactive)
REMARK    1  A    between atoms: C_2  and  C_3 
REMARK    2  A    between atoms: C_3  and  O_6 
REMARK    3  A    between atoms: C_3  and  C_4 
REMARK    4  A    between atoms: C_7  and  O_6 
REMARK    5  A    between atoms: C_9  and  C_10 
REMARK    6  A    between atoms: N_15  and  C_14 
REMARK    7  A    between atoms: N_20  and  C_19 
REMARK       I    between atoms: C_22  and  N_20 
ROOT
ATOM      1  C   LIG d   1      -6.587  77.169 117.826  0.00  0.00     0.161 C 
ATOM      2  C   LIG d   1      -5.623  76.683 116.927  0.00  0.00     0.016 C 
ATOM      3  C   LIG d   1      -5.747  75.451 116.245  0.00  0.00     0.038 C 
ATOM      4  C   LIG d   1      -6.923  74.687 116.301  0.00  0.00     0.028 C 
ATOM      5  C   LIG d   1      -7.715  74.889 117.588  0.00  0.00    -0.047 C 
ATOM      6  C   LIG d   1      -7.926  76.403 117.815  0.00  0.00     0.091 C 
ENDROOT
BRANCH   1   7
ATOM      7  O   LIG d   1      -6.811  78.573 117.590  0.00  0.00    -0.368 OA
BRANCH   7   8
ATOM      8  C   LIG d   1      -6.192  79.484 118.532  0.00  0.00     0.119 C 
BRANCH   8   9
ATOM      9  C   LIG d   1      -7.324  80.214 119.281  0.00  0.00     0.028 C 
ATOM     10  C   LIG d   1      -8.614  80.308 118.448  0.00  0.00     0.006 C 
ENDBRANCH   8   9
BRANCH   8  11
ATOM     11  C   LIG d   1      -5.408  80.584 117.811  0.00  0.00     0.028 C 
ATOM     12  C   LIG d   1      -4.084  80.078 117.215  0.00  0.00     0.006 C 
ENDBRANCH   8  11
ENDBRANCH   7   8
ENDBRANCH   1   7
BRANCH   6  13
ATOM     13  N   LIG d   1      -8.621  76.692 119.097  0.00  0.00    -0.311 N 
ATOM     14  C   LIG d   1      -9.934  76.893 119.190  0.00  0.00     0.210 C 
ATOM     15  C   LIG d   1     -10.443  77.196 120.603  0.00  0.00     0.109 C 
ATOM     16  O   LIG d   1     -10.730  76.817 118.242  0.00  0.00    -0.276 OA
ATOM     17  H   LIG d   1      -8.055  76.741 119.921  0.00  0.00     0.149 HD
ENDBRANCH   6  13
BRANCH   5  18
ATOM     18  N   LIG d   1      -8.980  74.142 117.453  0.00  0.00     0.381 N 
ATOM     19  H   LIG d   1      -8.906  73.262 117.923  0.00  0.00    -0.090 HD
ATOM     20  H   LIG d   1      -9.152  73.966 116.479  0.00  0.00    -0.090 HD
ATOM     21  H   LIG d   1      -9.731  74.671 117.841  0.00  0.00    -0.090 HD
ENDBRANCH   5  18
BRANCH   3  22
ATOM     22  C   LIG d   1      -4.671  74.951 115.527  0.00  0.00     0.382 C 
ATOM     23  O   LIG d   1      -4.768  74.781 114.288  0.00  0.00    -0.241 OA
ATOM     24  O   LIG d   1      -3.619  74.627 116.110  0.00  0.00    -0.241 OA
ENDBRANCH   3  22
TORSDOF 7
ENDMDL
MODEL 6
REMARK VINA RESULT:      -4.8     15.101     16.880
REMARK  7 active torsions:
REMARK  status: ('A' for Active; 'I' for Inactive)
REMARK    1  A    between atoms: C_2  and  C_3 
REMARK    2  A    between atoms: C_3  and  O_6 
REMARK    3  A    between atoms: C_3  and  C_4 
REMARK    4  A    between atoms: C_7  and  O_6 
REMARK    5  A    between atoms: C_9  and  C_10 
REMARK    6  A    between atoms: N_15  and  C_14 
REMARK    7  A    between atoms: N_20  and  C_19 
REMARK       I    between atoms: C_22  and  N_20 
ROOT
ATOM      1  C   LIG d   1       1.522  88.609 116.403  0.00  0.00     0.161 C 
ATOM      2  C   LIG d   1       0.152  88.578 116.712  0.00  0.00     0.016 C 
ATOM      3  C   LIG d   1      -0.546  89.678 117.262  0.00  0.00     0.038 C 
ATOM      4  C   LIG d   1       0.050  90.940 117.401  0.00  0.00     0.028 C 
ATOM      5  C   LIG d   1       1.564  90.879 117.574  0.00  0.00    -0.047 C 
ATOM      6  C   LIG d   1       2.164  90.012 116.445  0.00  0.00     0.091 C 
ENDROOT
BRANCH   1   7
ATOM      7  O   LIG d   1       1.748  87.992 115.120  0.00  0.00    -0.368 OA
BRANCH   7   8
ATOM      8  C   LIG d   1       2.321  86.662 115.144  0.00  0.00     0.119 C 
BRANCH   8   9
ATOM      9  C   LIG d   1       2.877  86.423 116.561  0.00  0.00     0.028 C 
ATOM     10  C   LIG d   1       4.402  86.218 116.566  0.00  0.00     0.006 C 
ENDBRANCH   8   9
BRANCH   8  11
ATOM     11  C   LIG d   1       3.531  86.559 114.210  0.00  0.00     0.028 C 
ATOM     12  C   LIG d   1       3.309  85.569 113.055  0.00  0.00     0.006 C 
ENDBRANCH   8  11
ENDBRANCH   7   8
ENDBRANCH   1   7
BRANCH   6  13
ATOM     13  N   LIG d   1       3.632  89.831 116.588  0.00  0.00    -0.311 N 
ATOM     14  C   LIG d   1       4.482  89.898 115.564  0.00  0.00     0.210 C 
ATOM     15  C   LIG d   1       5.951  89.662 115.928  0.00  0.00     0.109 C 
ATOM     16  O   LIG d   1       4.162  90.163 114.396  0.00  0.00    -0.276 OA
ATOM     17  H   LIG d   1       3.981  89.643 117.507  0.00  0.00     0.149 HD
ENDBRANCH   6  13
BRANCH   5  18
ATOM     18  N   LIG d   1       2.069  92.265 117.569  0.00  0.00     0.381 N 
ATOM     19  H   LIG d   1       1.306  92.904 117.673  0.00  0.00    -0.090 HD
ATOM     20  H   LIG d   1       2.514  92.446 116.686  0.00  0.00    -0.090 HD
ATOM     21  H   LIG d   1       2.722  92.393 118.311  0.00  0.00    -0.090 HD
ENDBRANCH   5  18
BRANCH   3  22
ATOM     22  C   LIG d   1      -1.845  89.509 117.716  0.00  0.00     0.382 C 
ATOM     23  O   LIG d   1      -2.094  88.653 118.599  0.00  0.00    -0.241 OA
ATOM     24  O   LIG d   1      -2.778  90.171 117.223  0.00  0.00    -0.241 OA
ENDBRANCH   3  22
TORSDOF 7
ENDMDL
MODEL 7
REMARK VINA RESULT:      -4.7      2.248      4.931
REMARK  7 active torsions:
REMARK  status: ('A' for Active; 'I' for Inactive)
REMARK    1  A    between atoms: C_2  and  C_3 
REMARK    2  A    between atoms: C_3  and  O_6 
REMARK    3  A    between atoms: C_3  and  C_4 
REMARK    4  A    between atoms: C_7  and  O_6 
REMARK    5  A    between atoms: C_9  and  C_10 
REMARK    6  A    between atoms: N_15  and  C_14 
REMARK    7  A    between atoms: N_20  and  C_19 
REMARK       I    between atoms: C_22  and  N_20 
ROOT
ATOM      1  C   LIG d   1      -6.812  76.688 118.012  0.00  0.00     0.161 C 
ATOM      2  C   LIG d   1      -7.346  75.440 117.649  0.00  0.00     0.016 C 
ATOM      3  C   LIG d   1      -8.728  75.144 117.685  0.00  0.00     0.038 C 
ATOM      4  C   LIG d   1      -9.691  76.131 117.944  0.00  0.00     0.028 C 
ATOM      5  C   LIG d   1      -9.169  77.275 118.807  0.00  0.00    -0.047 C 
ATOM      6  C   LIG d   1      -7.856  77.810 118.190  0.00  0.00     0.091 C 
ENDROOT
BRANCH   1   7
ATOM      7  O   LIG d   1      -5.807  77.086 117.058  0.00  0.00    -0.368 OA
BRANCH   7   8
ATOM      8  C   LIG d   1      -4.858  76.063 116.669  0.00  0.00     0.119 C 
BRANCH   8   9
ATOM      9  C   LIG d   1      -3.484  76.466 117.237  0.00  0.00     0.028 C 
ATOM     10  C   LIG d   1      -2.407  75.398 116.984  0.00  0.00     0.006 C 
ENDBRANCH   8   9
BRANCH   8  11
ATOM     11  C   LIG d   1      -4.673  76.023 115.149  0.00  0.00     0.028 C 
ATOM     12  C   LIG d   1      -5.334  74.797 114.500  0.00  0.00     0.006 C 
ENDBRANCH   8  11
ENDBRANCH   7   8
ENDBRANCH   1   7
BRANCH   6  13
ATOM     13  N   LIG d   1      -7.234  78.876 119.019  0.00  0.00    -0.311 N 
ATOM     14  C   LIG d   1      -7.402  80.177 118.787  0.00  0.00     0.210 C 
ATOM     15  C   LIG d   1      -6.655  81.106 119.748  0.00  0.00     0.109 C 
ATOM     16  O   LIG d   1      -8.124  80.649 117.896  0.00  0.00    -0.276 OA
ATOM     17  H   LIG d   1      -6.657  78.582 119.782  0.00  0.00     0.149 HD
ENDBRANCH   6  13
BRANCH   5  18
ATOM     18  N   LIG d   1     -10.230  78.296 118.883  0.00  0.00     0.381 N 
ATOM     19  H   LIG d   1      -9.893  79.100 119.375  0.00  0.00    -0.090 HD
ATOM     20  H   LIG d   1     -11.009  77.918 119.393  0.00  0.00    -0.090 HD
ATOM     21  H   LIG d   1     -10.520  78.556 117.966  0.00  0.00    -0.090 HD
ENDBRANCH   5  18
BRANCH   3  22
ATOM     22  C   LIG d   1      -9.156  73.839 117.500  0.00  0.00     0.382 C 
ATOM     23  O   LIG d   1     -10.384  73.582 117.453  0.00  0.00    -0.241 OA
ATOM     24  O   LIG d   1      -8.332  72.908 117.423  0.00  0.00    -0.241 OA
ENDBRANCH   3  22
TORSDOF 7
ENDMDL
MODEL 8
REMARK VINA RESULT:      -4.6      2.848      5.598
REMARK  7 active torsions:
REMARK  status: ('A' for Active; 'I' for Inactive)
REMARK    1  A    between atoms: C_2  and  C_3 
REMARK    2  A    between atoms: C_3  and  O_6 
REMARK    3  A    between atoms: C_3  and  C_4 
REMARK    4  A    between atoms: C_7  and  O_6 
REMARK    5  A    between atoms: C_9  and  C_10 
REMARK    6  A    between atoms: N_15  and  C_14 
REMARK    7  A    between atoms: N_20  and  C_19 
REMARK       I    between atoms: C_22  and  N_20 
ROOT
ATOM      1  C   LIG d   1      -7.479  77.933 118.488  0.00  0.00     0.161 C 
ATOM      2  C   LIG d   1      -8.539  77.013 118.548  0.00  0.00     0.016 C 
ATOM      3  C   LIG d   1      -9.880  77.386 118.796  0.00  0.00     0.038 C 
ATOM      4  C   LIG d   1     -10.278  78.730 118.851  0.00  0.00     0.028 C 
ATOM      5  C   LIG d   1      -9.166  79.674 119.298  0.00  0.00    -0.047 C 
ATOM      6  C   LIG d   1      -7.911  79.414 118.434  0.00  0.00     0.091 C 
ENDROOT
BRANCH   1   7
ATOM      7  O   LIG d   1      -6.623  77.620 117.371  0.00  0.00    -0.368 OA
BRANCH   7   8
ATOM      8  C   LIG d   1      -5.605  76.617 117.610  0.00  0.00     0.119 C 
BRANCH   8   9
ATOM      9  C   LIG d   1      -4.235  77.308 117.476  0.00  0.00     0.028 C 
ATOM     10  C   LIG d   1      -4.317  78.627 116.689  0.00  0.00     0.006 C 
ENDBRANCH   8   9
BRANCH   8  11
ATOM     11  C   LIG d   1      -5.623  75.536 116.525  0.00  0.00     0.028 C 
ATOM     12  C   LIG d   1      -6.572  75.872 115.364  0.00  0.00     0.006 C 
ENDBRANCH   8  11
ENDBRANCH   7   8
ENDBRANCH   1   7
BRANCH   6  13
ATOM     13  N   LIG d   1      -6.749  80.237 118.861  0.00  0.00    -0.311 N 
ATOM     14  C   LIG d   1      -6.379  81.358 118.246  0.00  0.00     0.210 C 
ATOM     15  C   LIG d   1      -5.141  82.042 118.836  0.00  0.00     0.109 C 
ATOM     16  O   LIG d   1      -6.977  81.869 117.287  0.00  0.00    -0.276 OA
ATOM     17  H   LIG d   1      -6.226  79.912 119.651  0.00  0.00     0.149 HD
ENDBRANCH   6  13
BRANCH   5  18
ATOM     18  N   LIG d   1      -9.676  81.052 119.177  0.00  0.00     0.381 N 
ATOM     19  H   LIG d   1     -10.384  81.213 119.865  0.00  0.00    -0.090 HD
ATOM     20  H   LIG d   1     -10.087  81.169 118.267  0.00  0.00    -0.090 HD
ATOM     21  H   LIG d   1      -8.931  81.703 119.298  0.00  0.00    -0.090 HD
ENDBRANCH   5  18
BRANCH   3  22
ATOM     22  C   LIG d   1     -10.833  76.407 119.032  0.00  0.00     0.382 C 
ATOM     23  O   LIG d   1     -10.668  75.583 119.963  0.00  0.00    -0.241 OA
ATOM     24  O   LIG d   1     -11.835  76.311 118.298  0.00  0.00    -0.241 OA
ENDBRANCH   3  22
TORSDOF 7
ENDMDL
MODEL 9
REMARK VINA RESULT:      -4.5     17.038     19.147
REMARK  7 active torsions:
REMARK  status: ('A' for Active; 'I' for Inactive)
REMARK    1  A    between atoms: C_2  and  C_3 
REMARK    2  A    between atoms: C_3  and  O_6 
REMARK    3  A    between atoms: C_3  and  C_4 
REMARK    4  A    between atoms: C_7  and  O_6 
REMARK    5  A    between atoms: C_9  and  C_10 
REMARK    6  A    between atoms: N_15  and  C_14 
REMARK    7  A    between atoms: N_20  and  C_19 
REMARK       I    between atoms: C_22  and  N_20 
ROOT
ATOM      1  C   LIG d   1     -23.955  83.726 115.023  0.00  0.00     0.161 C 
ATOM      2  C   LIG d   1     -22.964  84.718 114.943  0.00  0.00     0.016 C 
ATOM      3  C   LIG d   1     -23.155  85.959 114.292  0.00  0.00     0.038 C 
ATOM      4  C   LIG d   1     -24.409  86.355 113.804  0.00  0.00     0.028 C 
ATOM      5  C   LIG d   1     -25.305  85.183 113.415  0.00  0.00    -0.047 C 
ATOM      6  C   LIG d   1     -25.365  84.184 114.593  0.00  0.00     0.091 C 
ENDROOT
BRANCH   1   7
ATOM      7  O   LIG d   1     -23.991  83.177 116.355  0.00  0.00    -0.368 OA
BRANCH   7   8
ATOM      8  C   LIG d   1     -23.269  81.937 116.553  0.00  0.00     0.119 C 
BRANCH   8   9
ATOM      9  C   LIG d   1     -24.295  80.788 116.483  0.00  0.00     0.028 C 
ATOM     10  C   LIG d   1     -24.205  80.000 115.166  0.00  0.00     0.006 C 
ENDBRANCH   8   9
BRANCH   8  11
ATOM     11  C   LIG d   1     -22.669  81.860 117.960  0.00  0.00     0.028 C 
ATOM     12  C   LIG d   1     -21.887  83.126 118.344  0.00  0.00     0.006 C 
ENDBRANCH   8  11
ENDBRANCH   7   8
ENDBRANCH   1   7
BRANCH   6  13
ATOM     13  N   LIG d   1     -26.152  82.968 114.265  0.00  0.00    -0.311 N 
ATOM     14  C   LIG d   1     -27.440  82.823 114.574  0.00  0.00     0.210 C 
ATOM     15  C   LIG d   1     -28.056  81.482 114.162  0.00  0.00     0.109 C 
ATOM     16  O   LIG d   1     -28.138  83.689 115.121  0.00  0.00    -0.276 OA
ATOM     17  H   LIG d   1     -25.672  82.227 113.793  0.00  0.00     0.149 HD
ENDBRANCH   6  13
BRANCH   5  18
ATOM     18  N   LIG d   1     -26.625  85.733 113.055  0.00  0.00     0.381 N 
ATOM     19  H   LIG d   1     -27.164  85.890 113.883  0.00  0.00    -0.090 HD
ATOM     20  H   LIG d   1     -27.112  85.063 112.485  0.00  0.00    -0.090 HD
ATOM     21  H   LIG d   1     -26.515  86.587 112.555  0.00  0.00    -0.090 HD
ENDBRANCH   5  18
BRANCH   3  22
ATOM     22  C   LIG d   1     -22.073  86.802 114.089  0.00  0.00     0.382 C 
ATOM     23  O   LIG d   1     -22.057  87.940 114.618  0.00  0.00    -0.241 OA
ATOM     24  O   LIG d   1     -21.133  86.457 113.348  0.00  0.00    -0.241 OA
ENDBRANCH   3  22
TORSDOF 7
ENDMDL
