MODEL 1
REMARK VINA RESULT:      -6.0      0.000      0.000
REMARK  7 active torsions:
REMARK  status: ('A' for Active; 'I' for Inactive)
REMARK    1  A    between atoms: C_2  and  C_3 
REMARK    2  A    between atoms: C_3  and  O_6 
REMARK    3  A    between atoms: C_3  and  C_4 
REMARK    4  A    between atoms: C_7  and  O_6 
REMARK    5  A    between atoms: C_9  and  C_10 
REMARK    6  A    between atoms: N_15  and  C_14 
REMARK    7  A    between atoms: N_20  and  C_19 
REMARK       I    between atoms: C_22  and  N_20 
ROOT
ATOM      1  C   LIG d   1      -7.514  75.946 117.310  0.00  0.00     0.161 C 
ATOM      2  C   LIG d   1      -8.812  76.347 117.668  0.00  0.00     0.016 C 
ATOM      3  C   LIG d   1      -9.160  77.687 117.958  0.00  0.00     0.038 C 
ATOM      4  C   LIG d   1      -8.262  78.746 117.760  0.00  0.00     0.028 C 
ATOM      5  C   LIG d   1      -6.800  78.331 117.886  0.00  0.00    -0.047 C 
ATOM      6  C   LIG d   1      -6.547  77.102 116.982  0.00  0.00     0.091 C 
ENDROOT
BRANCH   1   7
ATOM      7  O   LIG d   1      -7.577  75.017 116.210  0.00  0.00    -0.368 OA
BRANCH   7   8
ATOM      8  C   LIG d   1      -7.445  73.615 116.551  0.00  0.00     0.119 C 
BRANCH   8   9
ATOM      9  C   LIG d   1      -6.679  72.929 115.404  0.00  0.00     0.028 C 
ATOM     10  C   LIG d   1      -5.794  73.912 114.619  0.00  0.00     0.006 C 
ENDBRANCH   8   9
BRANCH   8  11
ATOM     11  C   LIG d   1      -8.810  72.922 116.598  0.00  0.00     0.028 C 
ATOM     12  C   LIG d   1      -8.709  71.396 116.451  0.00  0.00     0.006 C 
ENDBRANCH   8  11
ENDBRANCH   7   8
ENDBRANCH   1   7
BRANCH   6  13
ATOM     13  N   LIG d   1      -5.162  76.580 117.109  0.00  0.00    -0.311 N 
ATOM     14  C   LIG d   1      -4.239  76.711 116.158  0.00  0.00     0.210 C 
ATOM     15  C   LIG d   1      -2.880  76.082 116.484  0.00  0.00     0.109 C 
ATOM     16  O   LIG d   1      -4.406  77.316 115.088  0.00  0.00    -0.276 OA
ATOM     17  H   LIG d   1      -4.931  76.102 117.958  0.00  0.00     0.149 HD
ENDBRANCH   6  13
BRANCH   5  18
ATOM     18  N   LIG d   1      -5.973  79.497 117.521  0.00  0.00     0.381 N 
ATOM     19  H   LIG d   1      -5.967  79.611 116.527  0.00  0.00    -0.090 HD
ATOM     20  H   LIG d   1      -5.029  79.333 117.825  0.00  0.00    -0.090 HD
ATOM     21  H   LIG d   1      -6.332  80.318 117.955  0.00  0.00    -0.090 HD
ENDBRANCH   5  18
BRANCH   3  22
ATOM     22  C   LIG d   1     -10.409  77.973 118.489  0.00  0.00     0.382 C 
ATOM     23  O   LIG d   1     -11.360  77.173 118.320  0.00  0.00    -0.241 OA
ATOM     24  O   LIG d   1     -10.607  79.042 119.096  0.00  0.00    -0.241 OA
ENDBRANCH   3  22
TORSDOF 7
ENDMDL
MODEL 2
REMARK VINA RESULT:      -5.5     14.778     17.577
REMARK  7 active torsions:
REMARK  status: ('A' for Active; 'I' for Inactive)
REMARK    1  A    between atoms: C_2  and  C_3 
REMARK    2  A    between atoms: C_3  and  O_6 
REMARK    3  A    between atoms: C_3  and  C_4 
REMARK    4  A    between atoms: C_7  and  O_6 
REMARK    5  A    between atoms: C_9  and  C_10 
REMARK    6  A    between atoms: N_15  and  C_14 
REMARK    7  A    between atoms: N_20  and  C_19 
REMARK       I    between atoms: C_22  and  N_20 
ROOT
ATOM      1  C   LIG d   1      -5.959  93.244 117.728  0.00  0.00     0.161 C 
ATOM      2  C   LIG d   1      -6.746  92.241 117.139  0.00  0.00     0.016 C 
ATOM      3  C   LIG d   1      -6.219  91.021 116.657  0.00  0.00     0.038 C 
ATOM      4  C   LIG d   1      -4.882  90.656 116.870  0.00  0.00     0.028 C 
ATOM      5  C   LIG d   1      -3.943  91.849 117.009  0.00  0.00    -0.047 C 
ATOM      6  C   LIG d   1      -4.516  92.818 118.069  0.00  0.00     0.091 C 
ENDROOT
BRANCH   1   7
ATOM      7  O   LIG d   1      -6.620  93.758 118.901  0.00  0.00    -0.368 OA
BRANCH   7   8
ATOM      8  C   LIG d   1      -7.632  94.769 118.671  0.00  0.00     0.119 C 
BRANCH   8   9
ATOM      9  C   LIG d   1      -7.363  95.926 119.654  0.00  0.00     0.028 C 
ATOM     10  C   LIG d   1      -5.982  96.567 119.441  0.00  0.00     0.006 C 
ENDBRANCH   8   9
BRANCH   8  11
ATOM     11  C   LIG d   1      -9.029  94.251 119.028  0.00  0.00     0.028 C 
ATOM     12  C   LIG d   1      -9.295  94.248 120.541  0.00  0.00     0.006 C 
ENDBRANCH   8  11
ENDBRANCH   7   8
ENDBRANCH   1   7
BRANCH   6  13
ATOM     13  N   LIG d   1      -3.702  94.053 118.207  0.00  0.00    -0.311 N 
ATOM     14  C   LIG d   1      -2.747  94.204 119.123  0.00  0.00     0.210 C 
ATOM     15  C   LIG d   1      -2.043  95.564 119.105  0.00  0.00     0.109 C 
ATOM     16  O   LIG d   1      -2.394  93.328 119.927  0.00  0.00    -0.276 OA
ATOM     17  H   LIG d   1      -3.901  94.803 117.574  0.00  0.00     0.149 HD
ENDBRANCH   6  13
BRANCH   5  18
ATOM     18  N   LIG d   1      -2.609  91.328 117.364  0.00  0.00     0.381 N 
ATOM     19  H   LIG d   1      -2.248  91.829 118.151  0.00  0.00    -0.090 HD
ATOM     20  H   LIG d   1      -1.987  91.471 116.587  0.00  0.00    -0.090 HD
ATOM     21  H   LIG d   1      -2.668  90.357 117.577  0.00  0.00    -0.090 HD
ENDBRANCH   5  18
BRANCH   3  22
ATOM     22  C   LIG d   1      -7.025  90.168 115.918  0.00  0.00     0.382 C 
ATOM     23  O   LIG d   1      -6.770  89.956 114.708  0.00  0.00    -0.241 OA
ATOM     24  O   LIG d   1      -8.030  89.643 116.434  0.00  0.00    -0.241 OA
ENDBRANCH   3  22
TORSDOF 7
ENDMDL
MODEL 3
REMARK VINA RESULT:      -5.5     14.377     16.852
REMARK  7 active torsions:
REMARK  status: ('A' for Active; 'I' for Inactive)
REMARK    1  A    between atoms: C_2  and  C_3 
REMARK    2  A    between atoms: C_3  and  O_6 
REMARK    3  A    between atoms: C_3  and  C_4 
REMARK    4  A    between atoms: C_7  and  O_6 
REMARK    5  A    between atoms: C_9  and  C_10 
REMARK    6  A    between atoms: N_15  and  C_14 
REMARK    7  A    between atoms: N_20  and  C_19 
REMARK       I    between atoms: C_22  and  N_20 
ROOT
ATOM      1  C   LIG d   1      -4.289  92.556 117.186  0.00  0.00     0.161 C 
ATOM      2  C   LIG d   1      -3.791  93.370 118.217  0.00  0.00     0.016 C 
ATOM      3  C   LIG d   1      -4.613  94.171 119.042  0.00  0.00     0.038 C 
ATOM      4  C   LIG d   1      -6.013  94.096 118.990  0.00  0.00     0.028 C 
ATOM      5  C   LIG d   1      -6.546  93.668 117.627  0.00  0.00    -0.047 C 
ATOM      6  C   LIG d   1      -5.821  92.376 117.187  0.00  0.00     0.091 C 
ENDROOT
BRANCH   1   7
ATOM      7  O   LIG d   1      -3.633  91.272 117.218  0.00  0.00    -0.368 OA
BRANCH   7   8
ATOM      8  C   LIG d   1      -2.769  91.026 118.354  0.00  0.00     0.119 C 
BRANCH   8   9
ATOM      9  C   LIG d   1      -1.357  90.738 117.807  0.00  0.00     0.028 C 
ATOM     10  C   LIG d   1      -0.319  91.762 118.295  0.00  0.00     0.006 C 
ENDBRANCH   8   9
BRANCH   8  11
ATOM     11  C   LIG d   1      -3.181  89.755 119.102  0.00  0.00     0.028 C 
ATOM     12  C   LIG d   1      -2.525  88.488 118.531  0.00  0.00     0.006 C 
ENDBRANCH   8  11
ENDBRANCH   7   8
ENDBRANCH   1   7
BRANCH   6  13
ATOM     13  N   LIG d   1      -6.223  91.935 115.826  0.00  0.00    -0.311 N 
ATOM     14  C   LIG d   1      -6.782  90.753 115.573  0.00  0.00     0.210 C 
ATOM     15  C   LIG d   1      -7.101  90.491 114.098  0.00  0.00     0.109 C 
ATOM     16  O   LIG d   1      -7.074  89.910 116.435  0.00  0.00    -0.276 OA
ATOM     17  H   LIG d   1      -6.051  92.571 115.071  0.00  0.00     0.149 HD
ENDBRANCH   6  13
BRANCH   5  18
ATOM     18  N   LIG d   1      -8.006  93.498 117.752  0.00  0.00     0.381 N 
ATOM     19  H   LIG d   1      -8.249  93.359 118.713  0.00  0.00    -0.090 HD
ATOM     20  H   LIG d   1      -8.284  92.682 117.235  0.00  0.00    -0.090 HD
ATOM     21  H   LIG d   1      -8.475  94.302 117.397  0.00  0.00    -0.090 HD
ENDBRANCH   5  18
BRANCH   3  22
ATOM     22  C   LIG d   1      -4.035  95.090 119.905  0.00  0.00     0.382 C 
ATOM     23  O   LIG d   1      -3.891  94.806 121.118  0.00  0.00    -0.241 OA
ATOM     24  O   LIG d   1      -3.695  96.215 119.494  0.00  0.00    -0.241 OA
ENDBRANCH   3  22
TORSDOF 7
ENDMDL
MODEL 4
REMARK VINA RESULT:      -5.3     14.284     16.691
REMARK  7 active torsions:
REMARK  status: ('A' for Active; 'I' for Inactive)
REMARK    1  A    between atoms: C_2  and  C_3 
REMARK    2  A    between atoms: C_3  and  O_6 
REMARK    3  A    between atoms: C_3  and  C_4 
REMARK    4  A    between atoms: C_7  and  O_6 
REMARK    5  A    between atoms: C_9  and  C_10 
REMARK    6  A    between atoms: N_15  and  C_14 
REMARK    7  A    between atoms: N_20  and  C_19 
REMARK       I    between atoms: C_22  and  N_20 
ROOT
ATOM      1  C   LIG d   1      -4.117  91.756 117.954  0.00  0.00     0.161 C 
ATOM      2  C   LIG d   1      -4.771  90.888 117.063  0.00  0.00     0.016 C 
ATOM      3  C   LIG d   1      -5.961  91.227 116.379  0.00  0.00     0.038 C 
ATOM      4  C   LIG d   1      -6.499  92.521 116.424  0.00  0.00     0.028 C 
ATOM      5  C   LIG d   1      -6.156  93.276 117.704  0.00  0.00    -0.047 C 
ATOM      6  C   LIG d   1      -4.628  93.212 117.930  0.00  0.00     0.091 C 
ENDROOT
BRANCH   1   7
ATOM      7  O   LIG d   1      -2.696  91.720 117.717  0.00  0.00    -0.368 OA
BRANCH   7   8
ATOM      8  C   LIG d   1      -1.902  91.020 118.706  0.00  0.00     0.119 C 
BRANCH   8   9
ATOM      9  C   LIG d   1      -0.662  91.885 119.002  0.00  0.00     0.028 C 
ATOM     10  C   LIG d   1      -0.057  92.499 117.728  0.00  0.00     0.006 C 
ENDBRANCH   8   9
BRANCH   8  11
ATOM     11  C   LIG d   1      -1.354  89.702 118.149  0.00  0.00     0.028 C 
ATOM     12  C   LIG d   1      -2.272  88.504 118.442  0.00  0.00     0.006 C 
ENDBRANCH   8  11
ENDBRANCH   7   8
ENDBRANCH   1   7
BRANCH   6  13
ATOM     13  N   LIG d   1      -4.217  93.854 119.206  0.00  0.00    -0.311 N 
ATOM     14  C   LIG d   1      -3.162  94.660 119.314  0.00  0.00     0.210 C 
ATOM     15  C   LIG d   1      -2.903  95.199 120.724  0.00  0.00     0.109 C 
ATOM     16  O   LIG d   1      -2.435  95.004 118.370  0.00  0.00    -0.276 OA
ATOM     17  H   LIG d   1      -4.770  93.654 120.016  0.00  0.00     0.149 HD
ENDBRANCH   6  13
BRANCH   5  18
ATOM     18  N   LIG d   1      -6.662  94.654 117.558  0.00  0.00     0.381 N 
ATOM     19  H   LIG d   1      -6.727  95.088 118.457  0.00  0.00    -0.090 HD
ATOM     20  H   LIG d   1      -7.582  94.622 117.156  0.00  0.00    -0.090 HD
ATOM     21  H   LIG d   1      -6.053  95.180 116.970  0.00  0.00    -0.090 HD
ENDBRANCH   5  18
BRANCH   3  22
ATOM     22  C   LIG d   1      -6.647  90.252 115.670  0.00  0.00     0.382 C 
ATOM     23  O   LIG d   1      -6.155  89.779 114.617  0.00  0.00    -0.241 OA
ATOM     24  O   LIG d   1      -7.772  89.872 116.047  0.00  0.00    -0.241 OA
ENDBRANCH   3  22
TORSDOF 7
ENDMDL
MODEL 5
REMARK VINA RESULT:      -5.3      1.672      2.664
REMARK  7 active torsions:
REMARK  status: ('A' for Active; 'I' for Inactive)
REMARK    1  A    between atoms: C_2  and  C_3 
REMARK    2  A    between atoms: C_3  and  O_6 
REMARK    3  A    between atoms: C_3  and  C_4 
REMARK    4  A    between atoms: C_7  and  O_6 
REMARK    5  A    between atoms: C_9  and  C_10 
REMARK    6  A    between atoms: N_15  and  C_14 
REMARK    7  A    between atoms: N_20  and  C_19 
REMARK       I    between atoms: C_22  and  N_20 
ROOT
ATOM      1  C   LIG d   1      -6.476  76.917 116.831  0.00  0.00     0.161 C 
ATOM      2  C   LIG d   1      -7.828  76.540 116.777  0.00  0.00     0.016 C 
ATOM      3  C   LIG d   1      -8.862  77.256 117.425  0.00  0.00     0.038 C 
ATOM      4  C   LIG d   1      -8.630  78.490 118.049  0.00  0.00     0.028 C 
ATOM      5  C   LIG d   1      -7.203  78.652 118.560  0.00  0.00    -0.047 C 
ATOM      6  C   LIG d   1      -6.219  78.322 117.414  0.00  0.00     0.091 C 
ENDROOT
BRANCH   1   7
ATOM      7  O   LIG d   1      -5.885  76.802 115.522  0.00  0.00    -0.368 OA
BRANCH   7   8
ATOM      8  C   LIG d   1      -4.941  75.718 115.341  0.00  0.00     0.119 C 
BRANCH   8   9
ATOM      9  C   LIG d   1      -3.719  76.287 114.595  0.00  0.00     0.028 C 
ATOM     10  C   LIG d   1      -2.388  75.860 115.237  0.00  0.00     0.006 C 
ENDBRANCH   8   9
BRANCH   8  11
ATOM     11  C   LIG d   1      -5.508  74.633 114.422  0.00  0.00     0.028 C 
ATOM     12  C   LIG d   1      -6.201  73.499 115.195  0.00  0.00     0.006 C 
ENDBRANCH   8  11
ENDBRANCH   7   8
ENDBRANCH   1   7
BRANCH   6  13
ATOM     13  N   LIG d   1      -4.800  78.375 117.853  0.00  0.00    -0.311 N 
ATOM     14  C   LIG d   1      -3.831  78.940 117.135  0.00  0.00     0.210 C 
ATOM     15  C   LIG d   1      -2.435  78.867 117.761  0.00  0.00     0.109 C 
ATOM     16  O   LIG d   1      -4.001  79.524 116.053  0.00  0.00    -0.276 OA
ATOM     17  H   LIG d   1      -4.579  77.953 118.733  0.00  0.00     0.149 HD
ENDBRANCH   6  13
BRANCH   5  18
ATOM     18  N   LIG d   1      -7.063  80.032 119.063  0.00  0.00     0.381 N 
ATOM     19  H   LIG d   1      -7.756  80.618 118.640  0.00  0.00    -0.090 HD
ATOM     20  H   LIG d   1      -6.156  80.381 118.807  0.00  0.00    -0.090 HD
ATOM     21  H   LIG d   1      -7.165  80.047 120.053  0.00  0.00    -0.090 HD
ENDBRANCH   5  18
BRANCH   3  22
ATOM     22  C   LIG d   1     -10.137  76.715 117.486  0.00  0.00     0.382 C 
ATOM     23  O   LIG d   1     -11.017  77.264 118.193  0.00  0.00    -0.241 OA
ATOM     24  O   LIG d   1     -10.407  75.662 116.879  0.00  0.00    -0.241 OA
ENDBRANCH   3  22
TORSDOF 7
ENDMDL
MODEL 6
REMARK VINA RESULT:      -5.3      1.758      2.841
REMARK  7 active torsions:
REMARK  status: ('A' for Active; 'I' for Inactive)
REMARK    1  A    between atoms: C_2  and  C_3 
REMARK    2  A    between atoms: C_3  and  O_6 
REMARK    3  A    between atoms: C_3  and  C_4 
REMARK    4  A    between atoms: C_7  and  O_6 
REMARK    5  A    between atoms: C_9  and  C_10 
REMARK    6  A    between atoms: N_15  and  C_14 
REMARK    7  A    between atoms: N_20  and  C_19 
REMARK       I    between atoms: C_22  and  N_20 
ROOT
ATOM      1  C   LIG d   1      -6.182  76.898 116.481  0.00  0.00     0.161 C 
ATOM      2  C   LIG d   1      -7.545  76.558 116.503  0.00  0.00     0.016 C 
ATOM      3  C   LIG d   1      -8.501  77.226 117.303  0.00  0.00     0.038 C 
ATOM      4  C   LIG d   1      -8.182  78.385 118.026  0.00  0.00     0.028 C 
ATOM      5  C   LIG d   1      -6.713  78.463 118.430  0.00  0.00    -0.047 C 
ATOM      6  C   LIG d   1      -5.836  78.230 117.179  0.00  0.00     0.091 C 
ENDROOT
BRANCH   1   7
ATOM      7  O   LIG d   1      -5.702  76.904 115.122  0.00  0.00    -0.368 OA
BRANCH   7   8
ATOM      8  C   LIG d   1      -4.886  75.774 114.729  0.00  0.00     0.119 C 
BRANCH   8   9
ATOM      9  C   LIG d   1      -5.831  74.693 114.169  0.00  0.00     0.028 C 
ATOM     10  C   LIG d   1      -5.893  73.446 115.067  0.00  0.00     0.006 C 
ENDBRANCH   8   9
BRANCH   8  11
ATOM     11  C   LIG d   1      -4.205  75.129 115.940  0.00  0.00     0.028 C 
ATOM     12  C   LIG d   1      -2.672  75.199 115.869  0.00  0.00     0.006 C 
ENDBRANCH   8  11
ENDBRANCH   7   8
ENDBRANCH   1   7
BRANCH   6  13
ATOM     13  N   LIG d   1      -4.385  78.206 117.500  0.00  0.00    -0.311 N 
ATOM     14  C   LIG d   1      -3.457  78.793 116.747  0.00  0.00     0.210 C 
ATOM     15  C   LIG d   1      -2.019  78.630 117.248  0.00  0.00     0.109 C 
ATOM     16  O   LIG d   1      -3.692  79.461 115.728  0.00  0.00    -0.276 OA
ATOM     17  H   LIG d   1      -4.109  77.712 118.326  0.00  0.00     0.149 HD
ENDBRANCH   6  13
BRANCH   5  18
ATOM     18  N   LIG d   1      -6.492  79.780 119.055  0.00  0.00     0.381 N 
ATOM     19  H   LIG d   1      -7.103  79.890 119.839  0.00  0.00    -0.090 HD
ATOM     20  H   LIG d   1      -6.706  80.498 118.385  0.00  0.00    -0.090 HD
ATOM     21  H   LIG d   1      -5.543  79.863 119.349  0.00  0.00    -0.090 HD
ENDBRANCH   5  18
BRANCH   3  22
ATOM     22  C   LIG d   1      -9.783  76.711 117.416  0.00  0.00     0.382 C 
ATOM     23  O   LIG d   1     -10.638  77.305 118.116  0.00  0.00    -0.241 OA
ATOM     24  O   LIG d   1     -10.083  75.637 116.862  0.00  0.00    -0.241 OA
ENDBRANCH   3  22
TORSDOF 7
ENDMDL
MODEL 7
REMARK VINA RESULT:      -5.1      2.108      5.180
REMARK  7 active torsions:
REMARK  status: ('A' for Active; 'I' for Inactive)
REMARK    1  A    between atoms: C_2  and  C_3 
REMARK    2  A    between atoms: C_3  and  O_6 
REMARK    3  A    between atoms: C_3  and  C_4 
REMARK    4  A    between atoms: C_7  and  O_6 
REMARK    5  A    between atoms: C_9  and  C_10 
REMARK    6  A    between atoms: N_15  and  C_14 
REMARK    7  A    between atoms: N_20  and  C_19 
REMARK       I    between atoms: C_22  and  N_20 
ROOT
ATOM      1  C   LIG d   1      -6.359  77.071 117.156  0.00  0.00     0.161 C 
ATOM      2  C   LIG d   1      -6.648  75.775 116.698  0.00  0.00     0.016 C 
ATOM      3  C   LIG d   1      -7.939  75.201 116.749  0.00  0.00     0.038 C 
ATOM      4  C   LIG d   1      -9.067  75.946 117.126  0.00  0.00     0.028 C 
ATOM      5  C   LIG d   1      -8.744  77.097 118.073  0.00  0.00    -0.047 C 
ATOM      6  C   LIG d   1      -7.597  77.938 117.467  0.00  0.00     0.091 C 
ENDROOT
BRANCH   1   7
ATOM      7  O   LIG d   1      -5.501  77.742 116.212  0.00  0.00    -0.368 OA
BRANCH   7   8
ATOM      8  C   LIG d   1      -4.104  77.847 116.583  0.00  0.00     0.119 C 
BRANCH   8   9
ATOM      9  C   LIG d   1      -3.854  79.296 117.042  0.00  0.00     0.028 C 
ATOM     10  C   LIG d   1      -3.585  79.395 118.553  0.00  0.00     0.006 C 
ENDBRANCH   8   9
BRANCH   8  11
ATOM     11  C   LIG d   1      -3.190  77.642 115.371  0.00  0.00     0.028 C 
ATOM     12  C   LIG d   1      -3.397  76.279 114.692  0.00  0.00     0.006 C 
ENDBRANCH   8  11
ENDBRANCH   7   8
ENDBRANCH   1   7
BRANCH   6  13
ATOM     13  N   LIG d   1      -7.161  79.036 118.370  0.00  0.00    -0.311 N 
ATOM     14  C   LIG d   1      -7.576  80.295 118.245  0.00  0.00     0.210 C 
ATOM     15  C   LIG d   1      -6.989  81.273 119.268  0.00  0.00     0.109 C 
ATOM     16  O   LIG d   1      -8.399  80.689 117.405  0.00  0.00    -0.276 OA
ATOM     17  H   LIG d   1      -6.518  78.798 119.099  0.00  0.00     0.149 HD
ENDBRANCH   6  13
BRANCH   5  18
ATOM     18  N   LIG d   1      -9.984  77.870 118.274  0.00  0.00     0.381 N 
ATOM     19  H   LIG d   1     -10.590  77.381 118.901  0.00  0.00    -0.090 HD
ATOM     20  H   LIG d   1     -10.454  77.965 117.391  0.00  0.00    -0.090 HD
ATOM     21  H   LIG d   1      -9.768  78.770 118.642  0.00  0.00    -0.090 HD
ENDBRANCH   5  18
BRANCH   3  22
ATOM     22  C   LIG d   1      -8.106  73.856 116.459  0.00  0.00     0.382 C 
ATOM     23  O   LIG d   1      -7.176  73.212 115.914  0.00  0.00    -0.241 OA
ATOM     24  O   LIG d   1      -9.189  73.288 116.693  0.00  0.00    -0.241 OA
ENDBRANCH   3  22
TORSDOF 7
ENDMDL
MODEL 8
REMARK VINA RESULT:      -4.9      2.560      5.886
REMARK  7 active torsions:
REMARK  status: ('A' for Active; 'I' for Inactive)
REMARK    1  A    between atoms: C_2  and  C_3 
REMARK    2  A    between atoms: C_3  and  O_6 
REMARK    3  A    between atoms: C_3  and  C_4 
REMARK    4  A    between atoms: C_7  and  O_6 
REMARK    5  A    between atoms: C_9  and  C_10 
REMARK    6  A    between atoms: N_15  and  C_14 
REMARK    7  A    between atoms: N_20  and  C_19 
REMARK       I    between atoms: C_22  and  N_20 
ROOT
ATOM      1  C   LIG d   1      -4.637  77.332 116.421  0.00  0.00     0.161 C 
ATOM      2  C   LIG d   1      -4.784  76.133 115.702  0.00  0.00     0.016 C 
ATOM      3  C   LIG d   1      -6.010  75.437 115.593  0.00  0.00     0.038 C 
ATOM      4  C   LIG d   1      -7.213  75.975 116.072  0.00  0.00     0.028 C 
ATOM      5  C   LIG d   1      -7.024  76.935 117.241  0.00  0.00    -0.047 C 
ATOM      6  C   LIG d   1      -5.962  77.991 116.857  0.00  0.00     0.091 C 
ENDROOT
BRANCH   1   7
ATOM      7  O   LIG d   1      -3.841  78.262 115.661  0.00  0.00    -0.368 OA
BRANCH   7   8
ATOM      8  C   LIG d   1      -2.676  77.712 114.999  0.00  0.00     0.119 C 
BRANCH   8   9
ATOM      9  C   LIG d   1      -1.444  78.075 115.851  0.00  0.00     0.028 C 
ATOM     10  C   LIG d   1      -0.785  76.839 116.485  0.00  0.00     0.006 C 
ENDBRANCH   8   9
BRANCH   8  11
ATOM     11  C   LIG d   1      -2.440  78.379 113.640  0.00  0.00     0.028 C 
ATOM     12  C   LIG d   1      -2.360  79.911 113.735  0.00  0.00     0.006 C 
ENDBRANCH   8  11
ENDBRANCH   7   8
ENDBRANCH   1   7
BRANCH   6  13
ATOM     13  N   LIG d   1      -5.656  78.920 117.975  0.00  0.00    -0.311 N 
ATOM     14  C   LIG d   1      -6.272  80.088 118.148  0.00  0.00     0.210 C 
ATOM     15  C   LIG d   1      -5.790  80.901 119.354  0.00  0.00     0.109 C 
ATOM     16  O   LIG d   1      -7.194  80.513 117.436  0.00  0.00    -0.276 OA
ATOM     17  H   LIG d   1      -4.942  78.639 118.619  0.00  0.00     0.149 HD
ENDBRANCH   6  13
BRANCH   5  18
ATOM     18  N   LIG d   1      -8.341  77.525 117.550  0.00  0.00     0.381 N 
ATOM     19  H   LIG d   1      -9.046  77.091 116.990  0.00  0.00    -0.090 HD
ATOM     20  H   LIG d   1      -8.318  78.505 117.327  0.00  0.00    -0.090 HD
ATOM     21  H   LIG d   1      -8.551  77.402 118.516  0.00  0.00    -0.090 HD
ENDBRANCH   5  18
BRANCH   3  22
ATOM     22  C   LIG d   1      -6.032  74.169 115.033  0.00  0.00     0.382 C 
ATOM     23  O   LIG d   1      -6.739  73.269 115.546  0.00  0.00    -0.241 OA
ATOM     24  O   LIG d   1      -5.319  73.901 114.047  0.00  0.00    -0.241 OA
ENDBRANCH   3  22
TORSDOF 7
ENDMDL
MODEL 9
REMARK VINA RESULT:      -4.8     12.304     14.930
REMARK  7 active torsions:
REMARK  status: ('A' for Active; 'I' for Inactive)
REMARK    1  A    between atoms: C_2  and  C_3 
REMARK    2  A    between atoms: C_3  and  O_6 
REMARK    3  A    between atoms: C_3  and  C_4 
REMARK    4  A    between atoms: C_7  and  O_6 
REMARK    5  A    between atoms: C_9  and  C_10 
REMARK    6  A    between atoms: N_15  and  C_14 
REMARK    7  A    between atoms: N_20  and  C_19 
REMARK       I    between atoms: C_22  and  N_20 
ROOT
ATOM      1  C   LIG d   1     -16.361  65.656 116.549  0.00  0.00     0.161 C 
ATOM      2  C   LIG d   1     -15.910  66.894 116.061  0.00  0.00     0.016 C 
ATOM      3  C   LIG d   1     -15.838  67.208 114.684  0.00  0.00     0.038 C 
ATOM      4  C   LIG d   1     -16.358  66.353 113.701  0.00  0.00     0.028 C 
ATOM      5  C   LIG d   1     -16.359  64.885 114.113  0.00  0.00    -0.047 C 
ATOM      6  C   LIG d   1     -17.036  64.753 115.496  0.00  0.00     0.091 C 
ENDROOT
BRANCH   1   7
ATOM      7  O   LIG d   1     -17.243  65.864 117.670  0.00  0.00    -0.368 OA
BRANCH   7   8
ATOM      8  C   LIG d   1     -16.912  66.972 118.543  0.00  0.00     0.119 C 
BRANCH   8   9
ATOM      9  C   LIG d   1     -16.018  66.422 119.671  0.00  0.00     0.028 C 
ATOM     10  C   LIG d   1     -14.614  67.051 119.667  0.00  0.00     0.006 C 
ENDBRANCH   8   9
BRANCH   8  11
ATOM     11  C   LIG d   1     -18.159  67.520 119.245  0.00  0.00     0.028 C 
ATOM     12  C   LIG d   1     -17.909  68.871 119.934  0.00  0.00     0.006 C 
ENDBRANCH   8  11
ENDBRANCH   7   8
ENDBRANCH   1   7
BRANCH   6  13
ATOM     13  N   LIG d   1     -17.004  63.359 116.012  0.00  0.00    -0.311 N 
ATOM     14  C   LIG d   1     -17.982  62.478 115.806  0.00  0.00     0.210 C 
ATOM     15  C   LIG d   1     -17.758  61.103 116.442  0.00  0.00     0.109 C 
ATOM     16  O   LIG d   1     -18.998  62.696 115.129  0.00  0.00    -0.276 OA
ATOM     17  H   LIG d   1     -16.202  63.088 116.546  0.00  0.00     0.149 HD
ENDBRANCH   6  13
BRANCH   5  18
ATOM     18  N   LIG d   1     -17.052  64.126 113.055  0.00  0.00     0.381 N 
ATOM     19  H   LIG d   1     -17.253  64.728 112.282  0.00  0.00    -0.090 HD
ATOM     20  H   LIG d   1     -17.922  63.780 113.420  0.00  0.00    -0.090 HD
ATOM     21  H   LIG d   1     -16.484  63.365 112.754  0.00  0.00    -0.090 HD
ENDBRANCH   5  18
BRANCH   3  22
ATOM     22  C   LIG d   1     -15.204  68.372 114.277  0.00  0.00     0.382 C 
ATOM     23  O   LIG d   1     -15.102  68.636 113.055  0.00  0.00    -0.241 OA
ATOM     24  O   LIG d   1     -14.693  69.139 115.115  0.00  0.00    -0.241 OA
ENDBRANCH   3  22
TORSDOF 7
ENDMDL
