MODEL 1
REMARK VINA RESULT:      -6.2      0.000      0.000
REMARK  7 active torsions:
REMARK  status: ('A' for Active; 'I' for Inactive)
REMARK    1  A    between atoms: C_2  and  C_3 
REMARK    2  A    between atoms: C_3  and  O_6 
REMARK    3  A    between atoms: C_3  and  C_4 
REMARK    4  A    between atoms: C_7  and  O_6 
REMARK    5  A    between atoms: C_9  and  C_10 
REMARK    6  A    between atoms: N_15  and  C_14 
REMARK    7  A    between atoms: N_20  and  C_19 
REMARK       I    between atoms: C_22  and  N_20 
ROOT
ATOM      1  C   LIG d   1      -7.704  76.545 117.556  0.00  0.00     0.161 C 
ATOM      2  C   LIG d   1      -8.970  77.002 117.956  0.00  0.00     0.016 C 
ATOM      3  C   LIG d   1      -9.284  78.368 118.137  0.00  0.00     0.038 C 
ATOM      4  C   LIG d   1      -8.388  79.388 117.781  0.00  0.00     0.028 C 
ATOM      5  C   LIG d   1      -6.926  78.961 117.852  0.00  0.00    -0.047 C 
ATOM      6  C   LIG d   1      -6.747  77.648 117.056  0.00  0.00     0.091 C 
ENDROOT
BRANCH   1   7
ATOM      7  O   LIG d   1      -7.848  75.517 116.556  0.00  0.00    -0.368 OA
BRANCH   7   8
ATOM      8  C   LIG d   1      -7.772  74.150 117.032  0.00  0.00     0.119 C 
BRANCH   8   9
ATOM      9  C   LIG d   1      -6.587  73.476 116.315  0.00  0.00     0.028 C 
ATOM     10  C   LIG d   1      -6.149  74.243 115.056  0.00  0.00     0.006 C 
ENDBRANCH   8   9
BRANCH   8  11
ATOM     11  C   LIG d   1      -9.008  73.346 116.617  0.00  0.00     0.028 C 
ATOM     12  C   LIG d   1      -8.898  71.857 116.979  0.00  0.00     0.006 C 
ENDBRANCH   8  11
ENDBRANCH   7   8
ENDBRANCH   1   7
BRANCH   6  13
ATOM     13  N   LIG d   1      -5.362  77.116 117.143  0.00  0.00    -0.311 N 
ATOM     14  C   LIG d   1      -4.425  77.359 116.229  0.00  0.00     0.210 C 
ATOM     15  C   LIG d   1      -3.070  76.698 116.501  0.00  0.00     0.109 C 
ATOM     16  O   LIG d   1      -4.577  78.086 115.236  0.00  0.00    -0.276 OA
ATOM     17  H   LIG d   1      -5.143  76.542 117.934  0.00  0.00     0.149 HD
ENDBRANCH   6  13
BRANCH   5  18
ATOM     18  N   LIG d   1      -6.111  80.072 117.324  0.00  0.00     0.381 N 
ATOM     19  H   LIG d   1      -6.669  80.901 117.261  0.00  0.00    -0.090 HD
ATOM     20  H   LIG d   1      -5.795  79.834 116.401  0.00  0.00    -0.090 HD
ATOM     21  H   LIG d   1      -5.329  80.234 117.920  0.00  0.00    -0.090 HD
ENDBRANCH   5  18
BRANCH   3  22
ATOM     22  C   LIG d   1     -10.491  78.726 118.718  0.00  0.00     0.382 C 
ATOM     23  O   LIG d   1     -11.393  77.866 118.869  0.00  0.00    -0.241 OA
ATOM     24  O   LIG d   1     -10.707  79.906 119.052  0.00  0.00    -0.241 OA
ENDBRANCH   3  22
TORSDOF 7
ENDMDL
MODEL 2
REMARK VINA RESULT:      -5.8      1.956      2.538
REMARK  7 active torsions:
REMARK  status: ('A' for Active; 'I' for Inactive)
REMARK    1  A    between atoms: C_2  and  C_3 
REMARK    2  A    between atoms: C_3  and  O_6 
REMARK    3  A    between atoms: C_3  and  C_4 
REMARK    4  A    between atoms: C_7  and  O_6 
REMARK    5  A    between atoms: C_9  and  C_10 
REMARK    6  A    between atoms: N_15  and  C_14 
REMARK    7  A    between atoms: N_20  and  C_19 
REMARK       I    between atoms: C_22  and  N_20 
ROOT
ATOM      1  C   LIG d   1      -6.245  76.862 116.956  0.00  0.00     0.161 C 
ATOM      2  C   LIG d   1      -7.161  77.884 117.257  0.00  0.00     0.016 C 
ATOM      3  C   LIG d   1      -6.825  79.258 117.246  0.00  0.00     0.038 C 
ATOM      4  C   LIG d   1      -5.582  79.714 116.784  0.00  0.00     0.028 C 
ATOM      5  C   LIG d   1      -4.462  78.693 116.951  0.00  0.00    -0.047 C 
ATOM      6  C   LIG d   1      -4.915  77.346 116.342  0.00  0.00     0.091 C 
ENDROOT
BRANCH   1   7
ATOM      7  O   LIG d   1      -6.867  75.885 116.099  0.00  0.00    -0.368 OA
BRANCH   7   8
ATOM      8  C   LIG d   1      -6.990  74.547 116.641  0.00  0.00     0.119 C 
BRANCH   8   9
ATOM      9  C   LIG d   1      -6.566  73.559 115.537  0.00  0.00     0.028 C 
ATOM     10  C   LIG d   1      -6.958  72.109 115.865  0.00  0.00     0.006 C 
ENDBRANCH   8   9
BRANCH   8  11
ATOM     11  C   LIG d   1      -8.450  74.205 116.952  0.00  0.00     0.028 C 
ATOM     12  C   LIG d   1      -9.447  75.070 116.164  0.00  0.00     0.006 C 
ENDBRANCH   8  11
ENDBRANCH   7   8
ENDBRANCH   1   7
BRANCH   6  13
ATOM     13  N   LIG d   1      -3.910  76.269 116.538  0.00  0.00    -0.311 N 
ATOM     14  C   LIG d   1      -3.285  75.658 115.533  0.00  0.00     0.210 C 
ATOM     15  C   LIG d   1      -2.302  74.561 115.955  0.00  0.00     0.109 C 
ATOM     16  O   LIG d   1      -3.427  75.942 114.334  0.00  0.00    -0.276 OA
ATOM     17  H   LIG d   1      -3.711  75.997 117.481  0.00  0.00     0.149 HD
ENDBRANCH   6  13
BRANCH   5  18
ATOM     18  N   LIG d   1      -3.256  79.244 116.304  0.00  0.00     0.381 N 
ATOM     19  H   LIG d   1      -2.536  78.549 116.283  0.00  0.00    -0.090 HD
ATOM     20  H   LIG d   1      -2.926  80.024 116.844  0.00  0.00    -0.090 HD
ATOM     21  H   LIG d   1      -3.471  79.538 115.377  0.00  0.00    -0.090 HD
ENDBRANCH   5  18
BRANCH   3  22
ATOM     22  C   LIG d   1      -7.726  80.189 117.740  0.00  0.00     0.382 C 
ATOM     23  O   LIG d   1      -7.946  81.247 117.103  0.00  0.00    -0.241 OA
ATOM     24  O   LIG d   1      -8.289  80.004 118.836  0.00  0.00    -0.241 OA
ENDBRANCH   3  22
TORSDOF 7
ENDMDL
MODEL 3
REMARK VINA RESULT:      -5.7      1.890      5.205
REMARK  7 active torsions:
REMARK  status: ('A' for Active; 'I' for Inactive)
REMARK    1  A    between atoms: C_2  and  C_3 
REMARK    2  A    between atoms: C_3  and  O_6 
REMARK    3  A    between atoms: C_3  and  C_4 
REMARK    4  A    between atoms: C_7  and  O_6 
REMARK    5  A    between atoms: C_9  and  C_10 
REMARK    6  A    between atoms: N_15  and  C_14 
REMARK    7  A    between atoms: N_20  and  C_19 
REMARK       I    between atoms: C_22  and  N_20 
ROOT
ATOM      1  C   LIG d   1      -6.355  76.867 115.199  0.00  0.00     0.161 C 
ATOM      2  C   LIG d   1      -5.168  76.539 114.523  0.00  0.00     0.016 C 
ATOM      3  C   LIG d   1      -3.880  76.824 115.030  0.00  0.00     0.038 C 
ATOM      4  C   LIG d   1      -3.687  77.325 116.326  0.00  0.00     0.028 C 
ATOM      5  C   LIG d   1      -4.868  78.139 116.843  0.00  0.00    -0.047 C 
ATOM      6  C   LIG d   1      -6.163  77.314 116.664  0.00  0.00     0.091 C 
ENDROOT
BRANCH   1   7
ATOM      7  O   LIG d   1      -7.279  75.763 115.129  0.00  0.00    -0.368 OA
BRANCH   7   8
ATOM      8  C   LIG d   1      -7.108  74.725 116.125  0.00  0.00     0.119 C 
BRANCH   8   9
ATOM      9  C   LIG d   1      -6.561  73.478 115.404  0.00  0.00     0.028 C 
ATOM     10  C   LIG d   1      -7.149  72.171 115.962  0.00  0.00     0.006 C 
ENDBRANCH   8   9
BRANCH   8  11
ATOM     11  C   LIG d   1      -8.454  74.293 116.716  0.00  0.00     0.028 C 
ATOM     12  C   LIG d   1      -9.642  75.058 116.113  0.00  0.00     0.006 C 
ENDBRANCH   8  11
ENDBRANCH   7   8
ENDBRANCH   1   7
BRANCH   6  13
ATOM     13  N   LIG d   1      -7.377  78.069 117.067  0.00  0.00    -0.311 N 
ATOM     14  C   LIG d   1      -8.090  77.786 118.155  0.00  0.00     0.210 C 
ATOM     15  C   LIG d   1      -9.317  78.676 118.376  0.00  0.00     0.109 C 
ATOM     16  O   LIG d   1      -7.804  76.902 118.977  0.00  0.00    -0.276 OA
ATOM     17  H   LIG d   1      -7.663  78.824 116.473  0.00  0.00     0.149 HD
ENDBRANCH   6  13
BRANCH   5  18
ATOM     18  N   LIG d   1      -4.591  78.482 118.250  0.00  0.00     0.381 N 
ATOM     19  H   LIG d   1      -3.649  78.238 118.479  0.00  0.00    -0.090 HD
ATOM     20  H   LIG d   1      -5.207  77.952 118.841  0.00  0.00    -0.090 HD
ATOM     21  H   LIG d   1      -4.735  79.457 118.398  0.00  0.00    -0.090 HD
ENDBRANCH   5  18
BRANCH   3  22
ATOM     22  C   LIG d   1      -2.768  76.645 114.221  0.00  0.00     0.382 C 
ATOM     23  O   LIG d   1      -2.758  77.112 113.056  0.00  0.00    -0.241 OA
ATOM     24  O   LIG d   1      -1.792  75.984 114.625  0.00  0.00    -0.241 OA
ENDBRANCH   3  22
TORSDOF 7
ENDMDL
MODEL 4
REMARK VINA RESULT:      -5.7      2.096      5.222
REMARK  7 active torsions:
REMARK  status: ('A' for Active; 'I' for Inactive)
REMARK    1  A    between atoms: C_2  and  C_3 
REMARK    2  A    between atoms: C_3  and  O_6 
REMARK    3  A    between atoms: C_3  and  C_4 
REMARK    4  A    between atoms: C_7  and  O_6 
REMARK    5  A    between atoms: C_9  and  C_10 
REMARK    6  A    between atoms: N_15  and  C_14 
REMARK    7  A    between atoms: N_20  and  C_19 
REMARK       I    between atoms: C_22  and  N_20 
ROOT
ATOM      1  C   LIG d   1      -6.080  76.203 116.389  0.00  0.00     0.161 C 
ATOM      2  C   LIG d   1      -4.967  75.424 116.032  0.00  0.00     0.016 C 
ATOM      3  C   LIG d   1      -3.631  75.827 116.257  0.00  0.00     0.038 C 
ATOM      4  C   LIG d   1      -3.318  76.977 116.996  0.00  0.00     0.028 C 
ATOM      5  C   LIG d   1      -4.400  78.049 116.936  0.00  0.00    -0.047 C 
ATOM      6  C   LIG d   1      -5.760  77.410 117.297  0.00  0.00     0.091 C 
ENDROOT
BRANCH   1   7
ATOM      7  O   LIG d   1      -7.085  75.369 117.000  0.00  0.00    -0.368 OA
BRANCH   7   8
ATOM      8  C   LIG d   1      -7.922  74.611 116.092  0.00  0.00     0.119 C 
BRANCH   8   9
ATOM      9  C   LIG d   1      -9.352  75.174 116.201  0.00  0.00     0.028 C 
ATOM     10  C   LIG d   1      -9.585  75.935 117.518  0.00  0.00     0.006 C 
ENDBRANCH   8   9
BRANCH   8  11
ATOM     11  C   LIG d   1      -8.029  73.146 116.526  0.00  0.00     0.028 C 
ATOM     12  C   LIG d   1      -7.004  72.241 115.824  0.00  0.00     0.006 C 
ENDBRANCH   8  11
ENDBRANCH   7   8
ENDBRANCH   1   7
BRANCH   6  13
ATOM     13  N   LIG d   1      -6.888  78.371 117.180  0.00  0.00    -0.311 N 
ATOM     14  C   LIG d   1      -7.358  79.078 118.207  0.00  0.00     0.210 C 
ATOM     15  C   LIG d   1      -8.537  79.996 117.874  0.00  0.00     0.109 C 
ATOM     16  O   LIG d   1      -6.889  79.055 119.355  0.00  0.00    -0.276 OA
ATOM     17  H   LIG d   1      -7.307  78.476 116.277  0.00  0.00     0.149 HD
ENDBRANCH   6  13
BRANCH   5  18
ATOM     18  N   LIG d   1      -4.007  79.131 117.858  0.00  0.00     0.381 N 
ATOM     19  H   LIG d   1      -4.380  78.952 118.769  0.00  0.00    -0.090 HD
ATOM     20  H   LIG d   1      -4.392  79.998 117.525  0.00  0.00    -0.090 HD
ATOM     21  H   LIG d   1      -3.014  79.196 117.904  0.00  0.00    -0.090 HD
ENDBRANCH   5  18
BRANCH   3  22
ATOM     22  C   LIG d   1      -2.591  75.095 115.704  0.00  0.00     0.382 C 
ATOM     23  O   LIG d   1      -2.030  74.197 116.376  0.00  0.00    -0.241 OA
ATOM     24  O   LIG d   1      -2.177  75.352 114.558  0.00  0.00    -0.241 OA
ENDBRANCH   3  22
TORSDOF 7
ENDMDL
MODEL 5
REMARK VINA RESULT:      -5.5      2.185      4.568
REMARK  7 active torsions:
REMARK  status: ('A' for Active; 'I' for Inactive)
REMARK    1  A    between atoms: C_2  and  C_3 
REMARK    2  A    between atoms: C_3  and  O_6 
REMARK    3  A    between atoms: C_3  and  C_4 
REMARK    4  A    between atoms: C_7  and  O_6 
REMARK    5  A    between atoms: C_9  and  C_10 
REMARK    6  A    between atoms: N_15  and  C_14 
REMARK    7  A    between atoms: N_20  and  C_19 
REMARK       I    between atoms: C_22  and  N_20 
ROOT
ATOM      1  C   LIG d   1      -6.093  77.118 116.564  0.00  0.00     0.161 C 
ATOM      2  C   LIG d   1      -6.352  78.450 116.927  0.00  0.00     0.016 C 
ATOM      3  C   LIG d   1      -7.576  78.880 117.487  0.00  0.00     0.038 C 
ATOM      4  C   LIG d   1      -8.578  77.974 117.865  0.00  0.00     0.028 C 
ATOM      5  C   LIG d   1      -8.563  76.682 117.055  0.00  0.00    -0.047 C 
ATOM      6  C   LIG d   1      -7.132  76.096 117.072  0.00  0.00     0.091 C 
ENDROOT
BRANCH   1   7
ATOM      7  O   LIG d   1      -4.770  76.742 116.995  0.00  0.00    -0.368 OA
BRANCH   7   8
ATOM      8  C   LIG d   1      -3.752  76.703 115.964  0.00  0.00     0.119 C 
BRANCH   8   9
ATOM      9  C   LIG d   1      -3.445  75.221 115.673  0.00  0.00     0.028 C 
ATOM     10  C   LIG d   1      -2.078  74.785 116.226  0.00  0.00     0.006 C 
ENDBRANCH   8   9
BRANCH   8  11
ATOM     11  C   LIG d   1      -2.432  77.299 116.462  0.00  0.00     0.028 C 
ATOM     12  C   LIG d   1      -2.561  78.777 116.864  0.00  0.00     0.006 C 
ENDBRANCH   8  11
ENDBRANCH   7   8
ENDBRANCH   1   7
BRANCH   6  13
ATOM     13  N   LIG d   1      -7.010  74.875 116.233  0.00  0.00    -0.311 N 
ATOM     14  C   LIG d   1      -7.067  73.639 116.725  0.00  0.00     0.210 C 
ATOM     15  C   LIG d   1      -6.899  72.523 115.689  0.00  0.00     0.109 C 
ATOM     16  O   LIG d   1      -7.275  73.360 117.915  0.00  0.00    -0.276 OA
ATOM     17  H   LIG d   1      -6.871  75.009 115.250  0.00  0.00     0.149 HD
ENDBRANCH   6  13
BRANCH   5  18
ATOM     18  N   LIG d   1      -9.566  75.775 117.644  0.00  0.00     0.381 N 
ATOM     19  H   LIG d   1      -9.309  75.551 118.585  0.00  0.00    -0.090 HD
ATOM     20  H   LIG d   1      -9.586  74.923 117.111  0.00  0.00    -0.090 HD
ATOM     21  H   LIG d   1     -10.464  76.205 117.630  0.00  0.00    -0.090 HD
ENDBRANCH   5  18
BRANCH   3  22
ATOM     22  C   LIG d   1      -7.825  80.236 117.638  0.00  0.00     0.382 C 
ATOM     23  O   LIG d   1      -8.792  80.623 118.337  0.00  0.00    -0.241 OA
ATOM     24  O   LIG d   1      -7.120  81.077 117.047  0.00  0.00    -0.241 OA
ENDBRANCH   3  22
TORSDOF 7
ENDMDL
MODEL 6
REMARK VINA RESULT:      -5.5      3.626      6.439
REMARK  7 active torsions:
REMARK  status: ('A' for Active; 'I' for Inactive)
REMARK    1  A    between atoms: C_2  and  C_3 
REMARK    2  A    between atoms: C_3  and  O_6 
REMARK    3  A    between atoms: C_3  and  C_4 
REMARK    4  A    between atoms: C_7  and  O_6 
REMARK    5  A    between atoms: C_9  and  C_10 
REMARK    6  A    between atoms: N_15  and  C_14 
REMARK    7  A    between atoms: N_20  and  C_19 
REMARK       I    between atoms: C_22  and  N_20 
ROOT
ATOM      1  C   LIG d   1      -3.345  75.312 115.365  0.00  0.00     0.161 C 
ATOM      2  C   LIG d   1      -2.694  76.546 115.199  0.00  0.00     0.016 C 
ATOM      3  C   LIG d   1      -3.359  77.792 115.273  0.00  0.00     0.038 C 
ATOM      4  C   LIG d   1      -4.700  77.894 115.671  0.00  0.00     0.028 C 
ATOM      5  C   LIG d   1      -5.522  76.649 115.357  0.00  0.00    -0.047 C 
ATOM      6  C   LIG d   1      -4.785  75.408 115.910  0.00  0.00     0.091 C 
ENDROOT
BRANCH   1   7
ATOM      7  O   LIG d   1      -2.549  74.450 116.203  0.00  0.00    -0.368 OA
BRANCH   7   8
ATOM      8  C   LIG d   1      -1.202  74.902 116.486  0.00  0.00     0.119 C 
BRANCH   8   9
ATOM      9  C   LIG d   1      -0.230  73.892 115.846  0.00  0.00     0.028 C 
ATOM     10  C   LIG d   1       0.250  74.340 114.455  0.00  0.00     0.006 C 
ENDBRANCH   8   9
BRANCH   8  11
ATOM     11  C   LIG d   1      -0.903  74.857 117.987  0.00  0.00     0.028 C 
ATOM     12  C   LIG d   1      -0.574  73.441 118.487  0.00  0.00     0.006 C 
ENDBRANCH   8  11
ENDBRANCH   7   8
ENDBRANCH   1   7
BRANCH   6  13
ATOM     13  N   LIG d   1      -5.480  74.139 115.572  0.00  0.00    -0.311 N 
ATOM     14  C   LIG d   1      -6.419  73.590 116.341  0.00  0.00     0.210 C 
ATOM     15  C   LIG d   1      -6.992  72.269 115.817  0.00  0.00     0.109 C 
ATOM     16  O   LIG d   1      -6.854  74.087 117.390  0.00  0.00    -0.276 OA
ATOM     17  H   LIG d   1      -5.210  73.684 114.722  0.00  0.00     0.149 HD
ENDBRANCH   6  13
BRANCH   5  18
ATOM     18  N   LIG d   1      -6.861  76.838 115.947  0.00  0.00     0.381 N 
ATOM     19  H   LIG d   1      -6.970  77.788 116.242  0.00  0.00    -0.090 HD
ATOM     20  H   LIG d   1      -6.947  76.245 116.754  0.00  0.00    -0.090 HD
ATOM     21  H   LIG d   1      -7.563  76.607 115.280  0.00  0.00    -0.090 HD
ENDBRANCH   5  18
BRANCH   3  22
ATOM     22  C   LIG d   1      -2.690  78.950 114.908  0.00  0.00     0.382 C 
ATOM     23  O   LIG d   1      -1.477  79.092 115.197  0.00  0.00    -0.241 OA
ATOM     24  O   LIG d   1      -3.295  79.874 114.332  0.00  0.00    -0.241 OA
ENDBRANCH   3  22
TORSDOF 7
ENDMDL
MODEL 7
REMARK VINA RESULT:      -5.3      2.301      5.989
REMARK  7 active torsions:
REMARK  status: ('A' for Active; 'I' for Inactive)
REMARK    1  A    between atoms: C_2  and  C_3 
REMARK    2  A    between atoms: C_3  and  O_6 
REMARK    3  A    between atoms: C_3  and  C_4 
REMARK    4  A    between atoms: C_7  and  O_6 
REMARK    5  A    between atoms: C_9  and  C_10 
REMARK    6  A    between atoms: N_15  and  C_14 
REMARK    7  A    between atoms: N_20  and  C_19 
REMARK       I    between atoms: C_22  and  N_20 
ROOT
ATOM      1  C   LIG d   1      -6.367  77.313 116.842  0.00  0.00     0.161 C 
ATOM      2  C   LIG d   1      -5.362  78.258 116.575  0.00  0.00     0.016 C 
ATOM      3  C   LIG d   1      -4.368  78.078 115.587  0.00  0.00     0.038 C 
ATOM      4  C   LIG d   1      -4.401  77.000 114.689  0.00  0.00     0.028 C 
ATOM      5  C   LIG d   1      -5.103  75.767 115.248  0.00  0.00    -0.047 C 
ATOM      6  C   LIG d   1      -6.487  76.183 115.798  0.00  0.00     0.091 C 
ENDROOT
BRANCH   1   7
ATOM      7  O   LIG d   1      -7.635  77.981 117.004  0.00  0.00    -0.368 OA
BRANCH   7   8
ATOM      8  C   LIG d   1      -7.724  78.920 118.104  0.00  0.00     0.119 C 
BRANCH   8   9
ATOM      9  C   LIG d   1      -9.069  78.675 118.814  0.00  0.00     0.028 C 
ATOM     10  C   LIG d   1      -9.854  77.505 118.197  0.00  0.00     0.006 C 
ENDBRANCH   8   9
BRANCH   8  11
ATOM     11  C   LIG d   1      -7.789  80.365 117.599  0.00  0.00     0.028 C 
ATOM     12  C   LIG d   1      -9.110  81.062 117.958  0.00  0.00     0.006 C 
ENDBRANCH   8  11
ENDBRANCH   7   8
ENDBRANCH   1   7
BRANCH   6  13
ATOM     13  N   LIG d   1      -7.205  75.052 116.440  0.00  0.00    -0.311 N 
ATOM     14  C   LIG d   1      -8.499  74.801 116.247  0.00  0.00     0.210 C 
ATOM     15  C   LIG d   1      -9.046  73.597 117.021  0.00  0.00     0.109 C 
ATOM     16  O   LIG d   1      -9.237  75.442 115.484  0.00  0.00    -0.276 OA
ATOM     17  H   LIG d   1      -6.674  74.462 117.051  0.00  0.00     0.149 HD
ENDBRANCH   6  13
BRANCH   5  18
ATOM     18  N   LIG d   1      -5.188  74.772 114.163  0.00  0.00     0.381 N 
ATOM     19  H   LIG d   1      -6.109  74.774 113.772  0.00  0.00    -0.090 HD
ATOM     20  H   LIG d   1      -5.009  73.859 114.545  0.00  0.00    -0.090 HD
ATOM     21  H   LIG d   1      -4.518  74.981 113.456  0.00  0.00    -0.090 HD
ENDBRANCH   5  18
BRANCH   3  22
ATOM     22  C   LIG d   1      -3.302  78.961 115.515  0.00  0.00     0.382 C 
ATOM     23  O   LIG d   1      -2.534  79.099 116.498  0.00  0.00    -0.241 OA
ATOM     24  O   LIG d   1      -3.124  79.655 114.496  0.00  0.00    -0.241 OA
ENDBRANCH   3  22
TORSDOF 7
ENDMDL
MODEL 8
REMARK VINA RESULT:      -5.1      2.128      4.890
REMARK  7 active torsions:
REMARK  status: ('A' for Active; 'I' for Inactive)
REMARK    1  A    between atoms: C_2  and  C_3 
REMARK    2  A    between atoms: C_3  and  O_6 
REMARK    3  A    between atoms: C_3  and  C_4 
REMARK    4  A    between atoms: C_7  and  O_6 
REMARK    5  A    between atoms: C_9  and  C_10 
REMARK    6  A    between atoms: N_15  and  C_14 
REMARK    7  A    between atoms: N_20  and  C_19 
REMARK       I    between atoms: C_22  and  N_20 
ROOT
ATOM      1  C   LIG d   1      -6.397  77.040 116.978  0.00  0.00     0.161 C 
ATOM      2  C   LIG d   1      -5.639  76.388 115.992  0.00  0.00     0.016 C 
ATOM      3  C   LIG d   1      -4.247  76.579 115.827  0.00  0.00     0.038 C 
ATOM      4  C   LIG d   1      -3.488  77.326 116.740  0.00  0.00     0.028 C 
ATOM      5  C   LIG d   1      -4.292  78.408 117.453  0.00  0.00    -0.047 C 
ATOM      6  C   LIG d   1      -5.567  77.773 118.053  0.00  0.00     0.091 C 
ENDROOT
BRANCH   1   7
ATOM      7  O   LIG d   1      -7.303  76.105 117.596  0.00  0.00    -0.368 OA
BRANCH   7   8
ATOM      8  C   LIG d   1      -7.856  75.085 116.728  0.00  0.00     0.119 C 
BRANCH   8   9
ATOM      9  C   LIG d   1      -9.376  75.320 116.647  0.00  0.00     0.028 C 
ATOM     10  C   LIG d   1      -9.856  76.403 117.628  0.00  0.00     0.006 C 
ENDBRANCH   8   9
BRANCH   8  11
ATOM     11  C   LIG d   1      -7.694  73.689 117.337  0.00  0.00     0.028 C 
ATOM     12  C   LIG d   1      -8.878  72.761 117.023  0.00  0.00     0.006 C 
ENDBRANCH   8  11
ENDBRANCH   7   8
ENDBRANCH   1   7
BRANCH   6  13
ATOM     13  N   LIG d   1      -6.452  78.778 118.697  0.00  0.00    -0.311 N 
ATOM     14  C   LIG d   1      -6.875  79.883 118.083  0.00  0.00     0.210 C 
ATOM     15  C   LIG d   1      -7.763  80.795 118.934  0.00  0.00     0.109 C 
ATOM     16  O   LIG d   1      -6.624  80.177 116.905  0.00  0.00    -0.276 OA
ATOM     17  H   LIG d   1      -6.729  78.603 119.643  0.00  0.00     0.149 HD
ENDBRANCH   6  13
BRANCH   5  18
ATOM     18  N   LIG d   1      -3.415  79.016 118.472  0.00  0.00     0.381 N 
ATOM     19  H   LIG d   1      -2.688  78.374 118.719  0.00  0.00    -0.090 HD
ATOM     20  H   LIG d   1      -3.958  79.209 119.295  0.00  0.00    -0.090 HD
ATOM     21  H   LIG d   1      -3.018  79.859 118.121  0.00  0.00    -0.090 HD
ENDBRANCH   5  18
BRANCH   3  22
ATOM     22  C   LIG d   1      -3.608  76.051 114.715  0.00  0.00     0.382 C 
ATOM     23  O   LIG d   1      -2.726  75.171 114.858  0.00  0.00    -0.241 OA
ATOM     24  O   LIG d   1      -3.872  76.476 113.574  0.00  0.00    -0.241 OA
ENDBRANCH   3  22
TORSDOF 7
ENDMDL
MODEL 9
REMARK VINA RESULT:      -5.1      1.925      5.034
REMARK  7 active torsions:
REMARK  status: ('A' for Active; 'I' for Inactive)
REMARK    1  A    between atoms: C_2  and  C_3 
REMARK    2  A    between atoms: C_3  and  O_6 
REMARK    3  A    between atoms: C_3  and  C_4 
REMARK    4  A    between atoms: C_7  and  O_6 
REMARK    5  A    between atoms: C_9  and  C_10 
REMARK    6  A    between atoms: N_15  and  C_14 
REMARK    7  A    between atoms: N_20  and  C_19 
REMARK       I    between atoms: C_22  and  N_20 
ROOT
ATOM      1  C   LIG d   1      -6.825  77.673 116.795  0.00  0.00     0.161 C 
ATOM      2  C   LIG d   1      -5.575  77.698 116.155  0.00  0.00     0.016 C 
ATOM      3  C   LIG d   1      -4.638  78.744 116.319  0.00  0.00     0.038 C 
ATOM      4  C   LIG d   1      -4.827  79.768 117.259  0.00  0.00     0.028 C 
ATOM      5  C   LIG d   1      -6.295  80.053 117.557  0.00  0.00    -0.047 C 
ATOM      6  C   LIG d   1      -7.003  78.725 117.909  0.00  0.00     0.091 C 
ENDROOT
BRANCH   1   7
ATOM      7  O   LIG d   1      -7.085  76.351 117.308  0.00  0.00    -0.368 OA
BRANCH   7   8
ATOM      8  C   LIG d   1      -7.654  75.404 116.370  0.00  0.00     0.119 C 
BRANCH   8   9
ATOM      9  C   LIG d   1      -8.938  74.838 117.006  0.00  0.00     0.028 C 
ATOM     10  C   LIG d   1      -9.947  75.940 117.372  0.00  0.00     0.006 C 
ENDBRANCH   8   9
BRANCH   8  11
ATOM     11  C   LIG d   1      -6.733  74.196 116.171  0.00  0.00     0.028 C 
ATOM     12  C   LIG d   1      -5.912  74.280 114.875  0.00  0.00     0.006 C 
ENDBRANCH   8  11
ENDBRANCH   7   8
ENDBRANCH   1   7
BRANCH   6  13
ATOM     13  N   LIG d   1      -8.461  78.902 118.133  0.00  0.00    -0.311 N 
ATOM     14  C   LIG d   1      -9.005  79.052 119.339  0.00  0.00     0.210 C 
ATOM     15  C   LIG d   1     -10.530  79.200 119.347  0.00  0.00     0.109 C 
ATOM     16  O   LIG d   1      -8.367  79.109 120.401  0.00  0.00    -0.276 OA
ATOM     17  H   LIG d   1      -9.050  78.900 117.323  0.00  0.00     0.149 HD
ENDBRANCH   6  13
BRANCH   5  18
ATOM     18  N   LIG d   1      -6.344  81.042 118.650  0.00  0.00     0.381 N 
ATOM     19  H   LIG d   1      -7.117  81.662 118.513  0.00  0.00    -0.090 HD
ATOM     20  H   LIG d   1      -5.498  81.585 118.636  0.00  0.00    -0.090 HD
ATOM     21  H   LIG d   1      -6.433  80.578 119.527  0.00  0.00    -0.090 HD
ENDBRANCH   5  18
BRANCH   3  22
ATOM     22  C   LIG d   1      -3.514  78.793 115.508  0.00  0.00     0.382 C 
ATOM     23  O   LIG d   1      -3.381  79.723 114.677  0.00  0.00    -0.241 OA
ATOM     24  O   LIG d   1      -2.653  77.895 115.568  0.00  0.00    -0.241 OA
ENDBRANCH   3  22
TORSDOF 7
ENDMDL
