MODEL 1
REMARK VINA RESULT:      -5.6      0.000      0.000
REMARK  7 active torsions:
REMARK  status: ('A' for Active; 'I' for Inactive)
REMARK    1  A    between atoms: C_2  and  C_3 
REMARK    2  A    between atoms: C_3  and  O_6 
REMARK    3  A    between atoms: C_3  and  C_4 
REMARK    4  A    between atoms: C_7  and  O_6 
REMARK    5  A    between atoms: C_9  and  C_10 
REMARK    6  A    between atoms: N_15  and  C_14 
REMARK    7  A    between atoms: N_20  and  C_19 
REMARK       I    between atoms: C_22  and  N_20 
ROOT
ATOM      1  C   LIG d   1      -0.677  59.493 118.153  0.00  0.00     0.161 C 
ATOM      2  C   LIG d   1       0.536  60.134 117.852  0.00  0.00     0.016 C 
ATOM      3  C   LIG d   1       1.712  59.441 117.483  0.00  0.00     0.038 C 
ATOM      4  C   LIG d   1       1.713  58.059 117.242  0.00  0.00     0.028 C 
ATOM      5  C   LIG d   1       0.639  57.307 118.022  0.00  0.00    -0.047 C 
ATOM      6  C   LIG d   1      -0.725  57.995 117.787  0.00  0.00     0.091 C 
ENDROOT
BRANCH   1   7
ATOM      7  O   LIG d   1      -1.769  60.196 117.528  0.00  0.00    -0.368 OA
BRANCH   7   8
ATOM      8  C   LIG d   1      -2.666  60.903 118.420  0.00  0.00     0.119 C 
BRANCH   8   9
ATOM      9  C   LIG d   1      -2.226  60.589 119.863  0.00  0.00     0.028 C 
ATOM     10  C   LIG d   1      -3.371  60.011 120.712  0.00  0.00     0.006 C 
ENDBRANCH   8   9
BRANCH   8  11
ATOM     11  C   LIG d   1      -4.098  60.372 118.307  0.00  0.00     0.028 C 
ATOM     12  C   LIG d   1      -4.327  59.543 117.034  0.00  0.00     0.006 C 
ENDBRANCH   8  11
ENDBRANCH   7   8
ENDBRANCH   1   7
BRANCH   6  13
ATOM     13  N   LIG d   1      -1.817  57.373 118.581  0.00  0.00    -0.311 N 
ATOM     14  C   LIG d   1      -2.648  56.455 118.091  0.00  0.00     0.210 C 
ATOM     15  C   LIG d   1      -3.715  55.959 119.072  0.00  0.00     0.109 C 
ATOM     16  O   LIG d   1      -2.583  55.981 116.947  0.00  0.00    -0.276 OA
ATOM     17  H   LIG d   1      -1.922  57.677 119.529  0.00  0.00     0.149 HD
ENDBRANCH   6  13
BRANCH   5  18
ATOM     18  N   LIG d   1       0.664  55.902 117.573  0.00  0.00     0.381 N 
ATOM     19  H   LIG d   1      -0.214  55.665 117.156  0.00  0.00    -0.090 HD
ATOM     20  H   LIG d   1       0.805  55.308 118.371  0.00  0.00    -0.090 HD
ATOM     21  H   LIG d   1       1.399  55.768 116.914  0.00  0.00    -0.090 HD
ENDBRANCH   5  18
BRANCH   3  22
ATOM     22  C   LIG d   1       2.913  60.127 117.391  0.00  0.00     0.382 C 
ATOM     23  O   LIG d   1       3.551  60.417 118.432  0.00  0.00    -0.241 OA
ATOM     24  O   LIG d   1       3.346  60.497 116.284  0.00  0.00    -0.241 OA
ENDBRANCH   3  22
TORSDOF 7
ENDMDL
MODEL 2
REMARK VINA RESULT:      -5.4     33.031     34.718
REMARK  7 active torsions:
REMARK  status: ('A' for Active; 'I' for Inactive)
REMARK    1  A    between atoms: C_2  and  C_3 
REMARK    2  A    between atoms: C_3  and  O_6 
REMARK    3  A    between atoms: C_3  and  C_4 
REMARK    4  A    between atoms: C_7  and  O_6 
REMARK    5  A    between atoms: C_9  and  C_10 
REMARK    6  A    between atoms: N_15  and  C_14 
REMARK    7  A    between atoms: N_20  and  C_19 
REMARK       I    between atoms: C_22  and  N_20 
ROOT
ATOM      1  C   LIG d   1      -6.843  92.795 118.491  0.00  0.00     0.161 C 
ATOM      2  C   LIG d   1      -5.765  93.549 118.982  0.00  0.00     0.016 C 
ATOM      3  C   LIG d   1      -4.415  93.283 118.654  0.00  0.00     0.038 C 
ATOM      4  C   LIG d   1      -4.062  92.332 117.686  0.00  0.00     0.028 C 
ATOM      5  C   LIG d   1      -5.081  91.207 117.542  0.00  0.00    -0.047 C 
ATOM      6  C   LIG d   1      -6.485  91.823 117.347  0.00  0.00     0.091 C 
ENDROOT
BRANCH   1   7
ATOM      7  O   LIG d   1      -7.911  93.674 118.086  0.00  0.00    -0.368 OA
BRANCH   7   8
ATOM      8  C   LIG d   1      -7.759  95.069 118.447  0.00  0.00     0.119 C 
BRANCH   8   9
ATOM      9  C   LIG d   1      -8.912  95.427 119.404  0.00  0.00     0.028 C 
ATOM     10  C   LIG d   1      -8.576  95.114 120.872  0.00  0.00     0.006 C 
ENDBRANCH   8   9
BRANCH   8  11
ATOM     11  C   LIG d   1      -7.942  95.983 117.232  0.00  0.00     0.028 C 
ATOM     12  C   LIG d   1      -7.794  97.473 117.579  0.00  0.00     0.006 C 
ENDBRANCH   8  11
ENDBRANCH   7   8
ENDBRANCH   1   7
BRANCH   6  13
ATOM     13  N   LIG d   1      -7.553  90.792 117.282  0.00  0.00    -0.311 N 
ATOM     14  C   LIG d   1      -7.895  90.162 116.159  0.00  0.00     0.210 C 
ATOM     15  C   LIG d   1      -9.035  89.149 116.309  0.00  0.00     0.109 C 
ATOM     16  O   LIG d   1      -7.342  90.321 115.061  0.00  0.00    -0.276 OA
ATOM     17  H   LIG d   1      -8.033  90.578 118.134  0.00  0.00     0.149 HD
ENDBRANCH   6  13
BRANCH   5  18
ATOM     18  N   LIG d   1      -4.657  90.364 116.407  0.00  0.00     0.381 N 
ATOM     19  H   LIG d   1      -4.702  90.892 115.558  0.00  0.00    -0.090 HD
ATOM     20  H   LIG d   1      -5.286  89.585 116.329  0.00  0.00    -0.090 HD
ATOM     21  H   LIG d   1      -3.727  90.037 116.554  0.00  0.00    -0.090 HD
ENDBRANCH   5  18
BRANCH   3  22
ATOM     22  C   LIG d   1      -3.401  93.947 119.328  0.00  0.00     0.382 C 
ATOM     23  O   LIG d   1      -2.402  93.310 119.740  0.00  0.00    -0.241 OA
ATOM     24  O   LIG d   1      -3.493  95.166 119.566  0.00  0.00    -0.241 OA
ENDBRANCH   3  22
TORSDOF 7
ENDMDL
MODEL 3
REMARK VINA RESULT:      -5.4     31.341     33.339
REMARK  7 active torsions:
REMARK  status: ('A' for Active; 'I' for Inactive)
REMARK    1  A    between atoms: C_2  and  C_3 
REMARK    2  A    between atoms: C_3  and  O_6 
REMARK    3  A    between atoms: C_3  and  C_4 
REMARK    4  A    between atoms: C_7  and  O_6 
REMARK    5  A    between atoms: C_9  and  C_10 
REMARK    6  A    between atoms: N_15  and  C_14 
REMARK    7  A    between atoms: N_20  and  C_19 
REMARK       I    between atoms: C_22  and  N_20 
ROOT
ATOM      1  C   LIG d   1      -4.700  91.002 117.462  0.00  0.00     0.161 C 
ATOM      2  C   LIG d   1      -5.370  90.633 116.283  0.00  0.00     0.016 C 
ATOM      3  C   LIG d   1      -6.278  91.479 115.606  0.00  0.00     0.038 C 
ATOM      4  C   LIG d   1      -6.465  92.818 115.982  0.00  0.00     0.028 C 
ATOM      5  C   LIG d   1      -6.194  93.075 117.461  0.00  0.00    -0.047 C 
ATOM      6  C   LIG d   1      -4.807  92.498 117.825  0.00  0.00     0.091 C 
ENDROOT
BRANCH   1   7
ATOM      7  O   LIG d   1      -3.318  90.603 117.384  0.00  0.00    -0.368 OA
BRANCH   7   8
ATOM      8  C   LIG d   1      -3.030  89.228 117.739  0.00  0.00     0.119 C 
BRANCH   8   9
ATOM      9  C   LIG d   1      -3.306  89.072 119.248  0.00  0.00     0.028 C 
ATOM     10  C   LIG d   1      -2.748  87.755 119.813  0.00  0.00     0.006 C 
ENDBRANCH   8   9
BRANCH   8  11
ATOM     11  C   LIG d   1      -1.544  88.906 117.563  0.00  0.00     0.028 C 
ATOM     12  C   LIG d   1      -0.658  90.162 117.561  0.00  0.00     0.006 C 
ENDBRANCH   8  11
ENDBRANCH   7   8
ENDBRANCH   1   7
BRANCH   6  13
ATOM     13  N   LIG d   1      -4.499  92.633 119.273  0.00  0.00    -0.311 N 
ATOM     14  C   LIG d   1      -3.865  93.682 119.793  0.00  0.00     0.210 C 
ATOM     15  C   LIG d   1      -3.631  93.612 121.305  0.00  0.00     0.109 C 
ATOM     16  O   LIG d   1      -3.503  94.679 119.150  0.00  0.00    -0.276 OA
ATOM     17  H   LIG d   1      -4.786  91.883 119.871  0.00  0.00     0.149 HD
ENDBRANCH   6  13
BRANCH   5  18
ATOM     18  N   LIG d   1      -6.292  94.530 117.685  0.00  0.00     0.381 N 
ATOM     19  H   LIG d   1      -7.198  94.757 118.044  0.00  0.00    -0.090 HD
ATOM     20  H   LIG d   1      -6.173  95.003 116.806  0.00  0.00    -0.090 HD
ATOM     21  H   LIG d   1      -5.589  94.824 118.327  0.00  0.00    -0.090 HD
ENDBRANCH   5  18
BRANCH   3  22
ATOM     22  C   LIG d   1      -7.041  90.975 114.564  0.00  0.00     0.382 C 
ATOM     23  O   LIG d   1      -7.935  91.683 114.042  0.00  0.00    -0.241 OA
ATOM     24  O   LIG d   1      -6.876  89.805 114.169  0.00  0.00    -0.241 OA
ENDBRANCH   3  22
TORSDOF 7
ENDMDL
MODEL 4
REMARK VINA RESULT:      -5.3     32.627     34.480
REMARK  7 active torsions:
REMARK  status: ('A' for Active; 'I' for Inactive)
REMARK    1  A    between atoms: C_2  and  C_3 
REMARK    2  A    between atoms: C_3  and  O_6 
REMARK    3  A    between atoms: C_3  and  C_4 
REMARK    4  A    between atoms: C_7  and  O_6 
REMARK    5  A    between atoms: C_9  and  C_10 
REMARK    6  A    between atoms: N_15  and  C_14 
REMARK    7  A    between atoms: N_20  and  C_19 
REMARK       I    between atoms: C_22  and  N_20 
ROOT
ATOM      1  C   LIG d   1      -5.528  92.884 117.191  0.00  0.00     0.161 C 
ATOM      2  C   LIG d   1      -6.402  92.476 116.169  0.00  0.00     0.016 C 
ATOM      3  C   LIG d   1      -6.325  91.214 115.537  0.00  0.00     0.038 C 
ATOM      4  C   LIG d   1      -5.458  90.209 115.991  0.00  0.00     0.028 C 
ATOM      5  C   LIG d   1      -4.214  90.751 116.687  0.00  0.00    -0.047 C 
ATOM      6  C   LIG d   1      -4.648  91.759 117.775  0.00  0.00     0.091 C 
ENDROOT
BRANCH   1   7
ATOM      7  O   LIG d   1      -6.273  93.534 118.240  0.00  0.00    -0.368 OA
BRANCH   7   8
ATOM      8  C   LIG d   1      -6.341  94.979 118.171  0.00  0.00     0.119 C 
BRANCH   8   9
ATOM      9  C   LIG d   1      -5.708  95.534 119.462  0.00  0.00     0.028 C 
ATOM     10  C   LIG d   1      -4.335  96.180 119.211  0.00  0.00     0.006 C 
ENDBRANCH   8   9
BRANCH   8  11
ATOM     11  C   LIG d   1      -7.792  95.470 118.188  0.00  0.00     0.028 C 
ATOM     12  C   LIG d   1      -7.977  96.808 117.455  0.00  0.00     0.006 C 
ENDBRANCH   8  11
ENDBRANCH   7   8
ENDBRANCH   1   7
BRANCH   6  13
ATOM     13  N   LIG d   1      -3.488  92.401 118.448  0.00  0.00    -0.311 N 
ATOM     14  C   LIG d   1      -3.395  92.546 119.769  0.00  0.00     0.210 C 
ATOM     15  C   LIG d   1      -2.125  93.252 120.254  0.00  0.00     0.109 C 
ATOM     16  O   LIG d   1      -4.228  92.128 120.587  0.00  0.00    -0.276 OA
ATOM     17  H   LIG d   1      -2.751  92.741 117.862  0.00  0.00     0.149 HD
ENDBRANCH   6  13
BRANCH   5  18
ATOM     18  N   LIG d   1      -3.469  89.599 117.230  0.00  0.00     0.381 N 
ATOM     19  H   LIG d   1      -2.771  89.309 116.575  0.00  0.00    -0.090 HD
ATOM     20  H   LIG d   1      -4.108  88.836 117.369  0.00  0.00    -0.090 HD
ATOM     21  H   LIG d   1      -3.042  89.847 118.095  0.00  0.00    -0.090 HD
ENDBRANCH   5  18
BRANCH   3  22
ATOM     22  C   LIG d   1      -7.094  90.961 114.411  0.00  0.00     0.382 C 
ATOM     23  O   LIG d   1      -7.019  89.847 113.838  0.00  0.00    -0.241 OA
ATOM     24  O   LIG d   1      -7.829  91.847 113.936  0.00  0.00    -0.241 OA
ENDBRANCH   3  22
TORSDOF 7
ENDMDL
MODEL 5
REMARK VINA RESULT:      -5.0     17.016     18.612
REMARK  7 active torsions:
REMARK  status: ('A' for Active; 'I' for Inactive)
REMARK    1  A    between atoms: C_2  and  C_3 
REMARK    2  A    between atoms: C_3  and  O_6 
REMARK    3  A    between atoms: C_3  and  C_4 
REMARK    4  A    between atoms: C_7  and  O_6 
REMARK    5  A    between atoms: C_9  and  C_10 
REMARK    6  A    between atoms: N_15  and  C_14 
REMARK    7  A    between atoms: N_20  and  C_19 
REMARK       I    between atoms: C_22  and  N_20 
ROOT
ATOM      1  C   LIG d   1      -3.167  77.076 116.011  0.00  0.00     0.161 C 
ATOM      2  C   LIG d   1      -3.245  78.124 115.079  0.00  0.00     0.016 C 
ATOM      3  C   LIG d   1      -2.110  78.781 114.551  0.00  0.00     0.038 C 
ATOM      4  C   LIG d   1      -0.807  78.330 114.805  0.00  0.00     0.028 C 
ATOM      5  C   LIG d   1      -0.668  77.596 116.135  0.00  0.00    -0.047 C 
ATOM      6  C   LIG d   1      -1.752  76.497 116.216  0.00  0.00     0.091 C 
ENDROOT
BRANCH   1   7
ATOM      7  O   LIG d   1      -4.089  76.029 115.647  0.00  0.00    -0.368 OA
BRANCH   7   8
ATOM      8  C   LIG d   1      -5.485  76.408 115.572  0.00  0.00     0.119 C 
BRANCH   8   9
ATOM      9  C   LIG d   1      -6.018  76.500 117.015  0.00  0.00     0.028 C 
ATOM     10  C   LIG d   1      -6.340  77.945 117.431  0.00  0.00     0.006 C 
ENDBRANCH   8   9
BRANCH   8  11
ATOM     11  C   LIG d   1      -6.323  75.316 114.900  0.00  0.00     0.028 C 
ATOM     12  C   LIG d   1      -6.397  74.025 115.731  0.00  0.00     0.006 C 
ENDBRANCH   8  11
ENDBRANCH   7   8
ENDBRANCH   1   7
BRANCH   6  13
ATOM     13  N   LIG d   1      -1.741  75.786 117.521  0.00  0.00    -0.311 N 
ATOM     14  C   LIG d   1      -1.586  74.468 117.636  0.00  0.00     0.210 C 
ATOM     15  C   LIG d   1      -1.626  73.936 119.072  0.00  0.00     0.109 C 
ATOM     16  O   LIG d   1      -1.387  73.693 116.689  0.00  0.00    -0.276 OA
ATOM     17  H   LIG d   1      -1.865  76.342 118.344  0.00  0.00     0.149 HD
ENDBRANCH   6  13
BRANCH   5  18
ATOM     18  N   LIG d   1       0.705  77.062 116.208  0.00  0.00     0.381 N 
ATOM     19  H   LIG d   1       1.270  77.483 115.498  0.00  0.00    -0.090 HD
ATOM     20  H   LIG d   1       0.677  76.071 116.045  0.00  0.00    -0.090 HD
ATOM     21  H   LIG d   1       1.095  77.247 117.106  0.00  0.00    -0.090 HD
ENDBRANCH   5  18
BRANCH   3  22
ATOM     22  C   LIG d   1      -2.273  79.928 113.788  0.00  0.00     0.382 C 
ATOM     23  O   LIG d   1      -3.370  80.537 113.798  0.00  0.00    -0.241 OA
ATOM     24  O   LIG d   1      -1.352  80.337 113.057  0.00  0.00    -0.241 OA
ENDBRANCH   3  22
TORSDOF 7
ENDMDL
MODEL 6
REMARK VINA RESULT:      -5.0     17.125     19.146
REMARK  7 active torsions:
REMARK  status: ('A' for Active; 'I' for Inactive)
REMARK    1  A    between atoms: C_2  and  C_3 
REMARK    2  A    between atoms: C_3  and  O_6 
REMARK    3  A    between atoms: C_3  and  C_4 
REMARK    4  A    between atoms: C_7  and  O_6 
REMARK    5  A    between atoms: C_9  and  C_10 
REMARK    6  A    between atoms: N_15  and  C_14 
REMARK    7  A    between atoms: N_20  and  C_19 
REMARK       I    between atoms: C_22  and  N_20 
ROOT
ATOM      1  C   LIG d   1      -2.672  77.768 116.511  0.00  0.00     0.161 C 
ATOM      2  C   LIG d   1      -3.662  76.939 115.960  0.00  0.00     0.016 C 
ATOM      3  C   LIG d   1      -3.784  76.686 114.574  0.00  0.00     0.038 C 
ATOM      4  C   LIG d   1      -2.824  77.130 113.652  0.00  0.00     0.028 C 
ATOM      5  C   LIG d   1      -2.090  78.389 114.101  0.00  0.00    -0.047 C 
ATOM      6  C   LIG d   1      -1.548  78.171 115.532  0.00  0.00     0.091 C 
ENDROOT
BRANCH   1   7
ATOM      7  O   LIG d   1      -2.114  77.149 117.686  0.00  0.00    -0.368 OA
BRANCH   7   8
ATOM      8  C   LIG d   1      -2.244  75.708 117.771  0.00  0.00     0.119 C 
BRANCH   8   9
ATOM      9  C   LIG d   1      -2.338  75.339 119.264  0.00  0.00     0.028 C 
ATOM     10  C   LIG d   1      -1.726  73.961 119.567  0.00  0.00     0.006 C 
ENDBRANCH   8   9
BRANCH   8  11
ATOM     11  C   LIG d   1      -0.986  75.004 117.257  0.00  0.00     0.028 C 
ATOM     12  C   LIG d   1      -1.195  74.332 115.890  0.00  0.00     0.006 C 
ENDBRANCH   8  11
ENDBRANCH   7   8
ENDBRANCH   1   7
BRANCH   6  13
ATOM     13  N   LIG d   1      -0.889  79.385 116.080  0.00  0.00    -0.311 N 
ATOM     14  C   LIG d   1       0.291  79.364 116.697  0.00  0.00     0.210 C 
ATOM     15  C   LIG d   1       0.781  80.724 117.203  0.00  0.00     0.109 C 
ATOM     16  O   LIG d   1       0.994  78.353 116.844  0.00  0.00    -0.276 OA
ATOM     17  H   LIG d   1      -1.375  80.254 115.976  0.00  0.00     0.149 HD
ENDBRANCH   6  13
BRANCH   5  18
ATOM     18  N   LIG d   1      -1.026  78.660 113.115  0.00  0.00     0.381 N 
ATOM     19  H   LIG d   1      -1.309  79.403 112.508  0.00  0.00    -0.090 HD
ATOM     20  H   LIG d   1      -0.881  77.836 112.559  0.00  0.00    -0.090 HD
ATOM     21  H   LIG d   1      -0.182  78.907 113.584  0.00  0.00    -0.090 HD
ENDBRANCH   5  18
BRANCH   3  22
ATOM     22  C   LIG d   1      -4.898  76.016 114.093  0.00  0.00     0.382 C 
ATOM     23  O   LIG d   1      -5.882  76.665 113.661  0.00  0.00    -0.241 OA
ATOM     24  O   LIG d   1      -4.951  74.772 114.125  0.00  0.00    -0.241 OA
ENDBRANCH   3  22
TORSDOF 7
ENDMDL
MODEL 7
REMARK VINA RESULT:      -4.9      2.256      3.367
REMARK  7 active torsions:
REMARK  status: ('A' for Active; 'I' for Inactive)
REMARK    1  A    between atoms: C_2  and  C_3 
REMARK    2  A    between atoms: C_3  and  O_6 
REMARK    3  A    between atoms: C_3  and  C_4 
REMARK    4  A    between atoms: C_7  and  O_6 
REMARK    5  A    between atoms: C_9  and  C_10 
REMARK    6  A    between atoms: N_15  and  C_14 
REMARK    7  A    between atoms: N_20  and  C_19 
REMARK       I    between atoms: C_22  and  N_20 
ROOT
ATOM      1  C   LIG d   1       1.508  59.453 118.896  0.00  0.00     0.161 C 
ATOM      2  C   LIG d   1       2.812  59.915 119.137  0.00  0.00     0.016 C 
ATOM      3  C   LIG d   1       3.698  60.315 118.110  0.00  0.00     0.038 C 
ATOM      4  C   LIG d   1       3.284  60.424 116.774  0.00  0.00     0.028 C 
ATOM      5  C   LIG d   1       2.134  59.488 116.418  0.00  0.00    -0.047 C 
ATOM      6  C   LIG d   1       1.001  59.670 117.454  0.00  0.00     0.091 C 
ENDROOT
BRANCH   1   7
ATOM      7  O   LIG d   1       0.597  60.046 119.842  0.00  0.00    -0.368 OA
BRANCH   7   8
ATOM      8  C   LIG d   1       0.132  59.181 120.907  0.00  0.00     0.119 C 
BRANCH   8   9
ATOM      9  C   LIG d   1       0.481  57.733 120.513  0.00  0.00     0.028 C 
ATOM     10  C   LIG d   1      -0.770  56.854 120.339  0.00  0.00     0.006 C 
ENDBRANCH   8   9
BRANCH   8  11
ATOM     11  C   LIG d   1      -1.395  59.213 121.024  0.00  0.00     0.028 C 
ATOM     12  C   LIG d   1      -1.974  60.629 120.882  0.00  0.00     0.006 C 
ENDBRANCH   8  11
ENDBRANCH   7   8
ENDBRANCH   1   7
BRANCH   6  13
ATOM     13  N   LIG d   1      -0.129  58.731 117.229  0.00  0.00    -0.311 N 
ATOM     14  C   LIG d   1      -1.408  59.101 117.262  0.00  0.00     0.210 C 
ATOM     15  C   LIG d   1      -2.415  57.972 117.023  0.00  0.00     0.109 C 
ATOM     16  O   LIG d   1      -1.803  60.264 117.434  0.00  0.00    -0.276 OA
ATOM     17  H   LIG d   1       0.102  57.773 117.051  0.00  0.00     0.149 HD
ENDBRANCH   6  13
BRANCH   5  18
ATOM     18  N   LIG d   1       1.713  59.803 115.040  0.00  0.00     0.381 N 
ATOM     19  H   LIG d   1       1.235  59.018 114.644  0.00  0.00    -0.090 HD
ATOM     20  H   LIG d   1       2.530  59.988 114.485  0.00  0.00    -0.090 HD
ATOM     21  H   LIG d   1       1.115  60.600 115.040  0.00  0.00    -0.090 HD
ENDBRANCH   5  18
BRANCH   3  22
ATOM     22  C   LIG d   1       5.027  60.574 118.411  0.00  0.00     0.382 C 
ATOM     23  O   LIG d   1       5.622  59.879 119.269  0.00  0.00    -0.241 OA
ATOM     24  O   LIG d   1       5.625  61.521 117.867  0.00  0.00    -0.241 OA
ENDBRANCH   3  22
TORSDOF 7
ENDMDL
MODEL 8
REMARK VINA RESULT:      -4.8     30.575     32.549
REMARK  7 active torsions:
REMARK  status: ('A' for Active; 'I' for Inactive)
REMARK    1  A    between atoms: C_2  and  C_3 
REMARK    2  A    between atoms: C_3  and  O_6 
REMARK    3  A    between atoms: C_3  and  C_4 
REMARK    4  A    between atoms: C_7  and  O_6 
REMARK    5  A    between atoms: C_9  and  C_10 
REMARK    6  A    between atoms: N_15  and  C_14 
REMARK    7  A    between atoms: N_20  and  C_19 
REMARK       I    between atoms: C_22  and  N_20 
ROOT
ATOM      1  C   LIG d   1      -3.519  90.509 117.835  0.00  0.00     0.161 C 
ATOM      2  C   LIG d   1      -4.415  90.182 116.804  0.00  0.00     0.016 C 
ATOM      3  C   LIG d   1      -5.415  91.064 116.333  0.00  0.00     0.038 C 
ATOM      4  C   LIG d   1      -5.489  92.398 116.761  0.00  0.00     0.028 C 
ATOM      5  C   LIG d   1      -4.927  92.616 118.162  0.00  0.00    -0.047 C 
ATOM      6  C   LIG d   1      -3.512  91.999 118.238  0.00  0.00     0.091 C 
ENDROOT
BRANCH   1   7
ATOM      7  O   LIG d   1      -2.189  90.080 117.481  0.00  0.00    -0.368 OA
BRANCH   7   8
ATOM      8  C   LIG d   1      -1.616  89.036 118.306  0.00  0.00     0.119 C 
BRANCH   8   9
ATOM      9  C   LIG d   1      -1.173  87.896 117.368  0.00  0.00     0.028 C 
ATOM     10  C   LIG d   1      -0.405  86.790 118.110  0.00  0.00     0.006 C 
ENDBRANCH   8   9
BRANCH   8  11
ATOM     11  C   LIG d   1      -2.668  88.415 119.230  0.00  0.00     0.028 C 
ATOM     12  C   LIG d   1      -2.347  88.619 120.719  0.00  0.00     0.006 C 
ENDBRANCH   8  11
ENDBRANCH   7   8
ENDBRANCH   1   7
BRANCH   6  13
ATOM     13  N   LIG d   1      -2.924  92.094 119.599  0.00  0.00    -0.311 N 
ATOM     14  C   LIG d   1      -1.661  92.451 119.829  0.00  0.00     0.210 C 
ATOM     15  C   LIG d   1      -1.252  92.466 121.305  0.00  0.00     0.109 C 
ATOM     16  O   LIG d   1      -0.851  92.788 118.952  0.00  0.00    -0.276 OA
ATOM     17  H   LIG d   1      -3.520  91.868 120.371  0.00  0.00     0.149 HD
ENDBRANCH   6  13
BRANCH   5  18
ATOM     18  N   LIG d   1      -4.940  94.067 118.426  0.00  0.00     0.381 N 
ATOM     19  H   LIG d   1      -4.382  94.270 119.232  0.00  0.00    -0.090 HD
ATOM     20  H   LIG d   1      -5.884  94.355 118.616  0.00  0.00    -0.090 HD
ATOM     21  H   LIG d   1      -4.587  94.561 117.636  0.00  0.00    -0.090 HD
ENDBRANCH   5  18
BRANCH   3  22
ATOM     22  C   LIG d   1      -6.380  90.600 115.452  0.00  0.00     0.382 C 
ATOM     23  O   LIG d   1      -6.068  89.782 114.554  0.00  0.00    -0.241 OA
ATOM     24  O   LIG d   1      -7.550  91.024 115.516  0.00  0.00    -0.241 OA
ENDBRANCH   3  22
TORSDOF 7
ENDMDL
MODEL 9
REMARK VINA RESULT:      -4.8     17.522     19.515
REMARK  7 active torsions:
REMARK  status: ('A' for Active; 'I' for Inactive)
REMARK    1  A    between atoms: C_2  and  C_3 
REMARK    2  A    between atoms: C_3  and  O_6 
REMARK    3  A    between atoms: C_3  and  C_4 
REMARK    4  A    between atoms: C_7  and  O_6 
REMARK    5  A    between atoms: C_9  and  C_10 
REMARK    6  A    between atoms: N_15  and  C_14 
REMARK    7  A    between atoms: N_20  and  C_19 
REMARK       I    between atoms: C_22  and  N_20 
ROOT
ATOM      1  C   LIG d   1      -4.796  76.882 117.348  0.00  0.00     0.161 C 
ATOM      2  C   LIG d   1      -5.694  77.890 117.738  0.00  0.00     0.016 C 
ATOM      3  C   LIG d   1      -5.470  79.266 117.502  0.00  0.00     0.038 C 
ATOM      4  C   LIG d   1      -4.396  79.719 116.721  0.00  0.00     0.028 C 
ATOM      5  C   LIG d   1      -3.196  78.779 116.738  0.00  0.00    -0.047 C 
ATOM      6  C   LIG d   1      -3.674  77.349 116.398  0.00  0.00     0.091 C 
ENDROOT
BRANCH   1   7
ATOM      7  O   LIG d   1      -5.521  75.781 116.766  0.00  0.00    -0.368 OA
BRANCH   7   8
ATOM      8  C   LIG d   1      -6.516  76.127 115.772  0.00  0.00     0.119 C 
BRANCH   8   9
ATOM      9  C   LIG d   1      -7.844  75.473 116.200  0.00  0.00     0.028 C 
ATOM     10  C   LIG d   1      -7.686  73.976 116.515  0.00  0.00     0.006 C 
ENDBRANCH   8   9
BRANCH   8  11
ATOM     11  C   LIG d   1      -6.181  75.512 114.410  0.00  0.00     0.028 C 
ATOM     12  C   LIG d   1      -6.911  76.204 113.248  0.00  0.00     0.006 C 
ENDBRANCH   8  11
ENDBRANCH   7   8
ENDBRANCH   1   7
BRANCH   6  13
ATOM     13  N   LIG d   1      -2.576  76.350 116.475  0.00  0.00    -0.311 N 
ATOM     14  C   LIG d   1      -2.181  75.613 115.438  0.00  0.00     0.210 C 
ATOM     15  C   LIG d   1      -1.045  74.630 115.739  0.00  0.00     0.109 C 
ATOM     16  O   LIG d   1      -2.641  75.703 114.290  0.00  0.00    -0.276 OA
ATOM     17  H   LIG d   1      -2.126  76.235 117.362  0.00  0.00     0.149 HD
ENDBRANCH   6  13
BRANCH   5  18
ATOM     18  N   LIG d   1      -2.206  79.302 115.777  0.00  0.00     0.381 N 
ATOM     19  H   LIG d   1      -2.595  79.299 114.855  0.00  0.00    -0.090 HD
ATOM     20  H   LIG d   1      -1.400  78.701 115.781  0.00  0.00    -0.090 HD
ATOM     21  H   LIG d   1      -1.941  80.228 116.031  0.00  0.00    -0.090 HD
ENDBRANCH   5  18
BRANCH   3  22
ATOM     22  C   LIG d   1      -6.304  80.208 118.085  0.00  0.00     0.382 C 
ATOM     23  O   LIG d   1      -5.878  80.933 119.016  0.00  0.00    -0.241 OA
ATOM     24  O   LIG d   1      -7.491  80.311 117.721  0.00  0.00    -0.241 OA
ENDBRANCH   3  22
TORSDOF 7
ENDMDL
