MODEL 1
REMARK VINA RESULT:      -6.2      0.000      0.000
REMARK  7 active torsions:
REMARK  status: ('A' for Active; 'I' for Inactive)
REMARK    1  A    between atoms: C_2  and  C_3 
REMARK    2  A    between atoms: C_3  and  O_6 
REMARK    3  A    between atoms: C_3  and  C_4 
REMARK    4  A    between atoms: C_7  and  O_6 
REMARK    5  A    between atoms: C_9  and  C_10 
REMARK    6  A    between atoms: N_15  and  C_14 
REMARK    7  A    between atoms: N_20  and  C_19 
REMARK       I    between atoms: C_22  and  N_20 
ROOT
ATOM      1  C   LIG d   1      -8.762  73.955 118.219  0.00  0.00     0.161 C 
ATOM      2  C   LIG d   1      -8.421  72.789 117.515  0.00  0.00     0.016 C 
ATOM      3  C   LIG d   1      -9.363  71.801 117.144  0.00  0.00     0.038 C 
ATOM      4  C   LIG d   1     -10.742  71.987 117.322  0.00  0.00     0.028 C 
ATOM      5  C   LIG d   1     -11.082  72.919 118.481  0.00  0.00    -0.047 C 
ATOM      6  C   LIG d   1     -10.277  74.229 118.325  0.00  0.00     0.091 C 
ENDROOT
BRANCH   1   7
ATOM      7  O   LIG d   1      -8.087  75.090 117.640  0.00  0.00    -0.368 OA
BRANCH   7   8
ATOM      8  C   LIG d   1      -6.731  74.861 117.185  0.00  0.00     0.119 C 
BRANCH   8   9
ATOM      9  C   LIG d   1      -5.809  75.806 117.980  0.00  0.00     0.028 C 
ATOM     10  C   LIG d   1      -4.329  75.398 117.886  0.00  0.00     0.006 C 
ENDBRANCH   8   9
BRANCH   8  11
ATOM     11  C   LIG d   1      -6.560  75.268 115.718  0.00  0.00     0.028 C 
ATOM     12  C   LIG d   1      -6.080  74.109 114.830  0.00  0.00     0.006 C 
ENDBRANCH   8  11
ENDBRANCH   7   8
ENDBRANCH   1   7
BRANCH   6  13
ATOM     13  N   LIG d   1     -10.487  75.162 119.462  0.00  0.00    -0.311 N 
ATOM     14  C   LIG d   1     -11.457  76.075 119.491  0.00  0.00     0.210 C 
ATOM     15  C   LIG d   1     -11.484  76.949 120.748  0.00  0.00     0.109 C 
ATOM     16  O   LIG d   1     -12.317  76.222 118.609  0.00  0.00    -0.276 OA
ATOM     17  H   LIG d   1      -9.854  75.091 120.234  0.00  0.00     0.149 HD
ENDBRANCH   6  13
BRANCH   5  18
ATOM     18  N   LIG d   1     -12.542  73.132 118.466  0.00  0.00     0.381 N 
ATOM     19  H   LIG d   1     -13.000  72.315 118.116  0.00  0.00    -0.090 HD
ATOM     20  H   LIG d   1     -12.752  73.899 117.852  0.00  0.00    -0.090 HD
ATOM     21  H   LIG d   1     -12.866  73.336 119.386  0.00  0.00    -0.090 HD
ENDBRANCH   5  18
BRANCH   3  22
ATOM     22  C   LIG d   1      -8.923  70.593 116.624  0.00  0.00     0.382 C 
ATOM     23  O   LIG d   1      -7.886  70.555 115.918  0.00  0.00    -0.241 OA
ATOM     24  O   LIG d   1      -9.574  69.549 116.815  0.00  0.00    -0.241 OA
ENDBRANCH   3  22
TORSDOF 7
ENDMDL
MODEL 2
REMARK VINA RESULT:      -6.2      1.007      1.734
REMARK  7 active torsions:
REMARK  status: ('A' for Active; 'I' for Inactive)
REMARK    1  A    between atoms: C_2  and  C_3 
REMARK    2  A    between atoms: C_3  and  O_6 
REMARK    3  A    between atoms: C_3  and  C_4 
REMARK    4  A    between atoms: C_7  and  O_6 
REMARK    5  A    between atoms: C_9  and  C_10 
REMARK    6  A    between atoms: N_15  and  C_14 
REMARK    7  A    between atoms: N_20  and  C_19 
REMARK       I    between atoms: C_22  and  N_20 
ROOT
ATOM      1  C   LIG d   1      -8.958  73.663 118.767  0.00  0.00     0.161 C 
ATOM      2  C   LIG d   1      -8.587  72.569 117.967  0.00  0.00     0.016 C 
ATOM      3  C   LIG d   1      -9.516  71.768 117.264  0.00  0.00     0.038 C 
ATOM      4  C   LIG d   1     -10.877  72.102 117.193  0.00  0.00     0.028 C 
ATOM      5  C   LIG d   1     -11.369  72.902 118.394  0.00  0.00    -0.047 C 
ATOM      6  C   LIG d   1     -10.427  74.109 118.612  0.00  0.00     0.091 C 
ENDROOT
BRANCH   1   7
ATOM      7  O   LIG d   1      -8.069  74.771 118.523  0.00  0.00    -0.368 OA
BRANCH   7   8
ATOM      8  C   LIG d   1      -7.820  75.093 117.132  0.00  0.00     0.119 C 
BRANCH   8   9
ATOM      9  C   LIG d   1      -6.367  74.687 116.817  0.00  0.00     0.028 C 
ATOM     10  C   LIG d   1      -6.250  73.902 115.499  0.00  0.00     0.006 C 
ENDBRANCH   8   9
BRANCH   8  11
ATOM     11  C   LIG d   1      -7.881  76.604 116.891  0.00  0.00     0.028 C 
ATOM     12  C   LIG d   1      -8.749  77.338 117.925  0.00  0.00     0.006 C 
ENDBRANCH   8  11
ENDBRANCH   7   8
ENDBRANCH   1   7
BRANCH   6  13
ATOM     13  N   LIG d   1     -10.787  74.898 119.819  0.00  0.00    -0.311 N 
ATOM     14  C   LIG d   1     -11.611  75.944 119.791  0.00  0.00     0.210 C 
ATOM     15  C   LIG d   1     -11.832  76.629 121.144  0.00  0.00     0.109 C 
ATOM     16  O   LIG d   1     -12.205  76.350 118.781  0.00  0.00    -0.276 OA
ATOM     17  H   LIG d   1     -10.375  74.618 120.687  0.00  0.00     0.149 HD
ENDBRANCH   6  13
BRANCH   5  18
ATOM     18  N   LIG d   1     -12.763  73.299 118.124  0.00  0.00     0.381 N 
ATOM     19  H   LIG d   1     -13.250  73.436 118.988  0.00  0.00    -0.090 HD
ATOM     20  H   LIG d   1     -13.220  72.560 117.619  0.00  0.00    -0.090 HD
ATOM     21  H   LIG d   1     -12.782  74.139 117.588  0.00  0.00    -0.090 HD
ENDBRANCH   5  18
BRANCH   3  22
ATOM     22  C   LIG d   1      -9.092  70.597 116.656  0.00  0.00     0.382 C 
ATOM     23  O   LIG d   1      -9.700  69.521 116.874  0.00  0.00    -0.241 OA
ATOM     24  O   LIG d   1      -8.082  70.594 115.927  0.00  0.00    -0.241 OA
ENDBRANCH   3  22
TORSDOF 7
ENDMDL
MODEL 3
REMARK VINA RESULT:      -5.5      2.841      6.727
REMARK  7 active torsions:
REMARK  status: ('A' for Active; 'I' for Inactive)
REMARK    1  A    between atoms: C_2  and  C_3 
REMARK    2  A    between atoms: C_3  and  O_6 
REMARK    3  A    between atoms: C_3  and  C_4 
REMARK    4  A    between atoms: C_7  and  O_6 
REMARK    5  A    between atoms: C_9  and  C_10 
REMARK    6  A    between atoms: N_15  and  C_14 
REMARK    7  A    between atoms: N_20  and  C_19 
REMARK       I    between atoms: C_22  and  N_20 
ROOT
ATOM      1  C   LIG d   1      -9.411  75.978 118.233  0.00  0.00     0.161 C 
ATOM      2  C   LIG d   1     -10.101  77.044 118.834  0.00  0.00     0.016 C 
ATOM      3  C   LIG d   1      -9.664  78.387 118.773  0.00  0.00     0.038 C 
ATOM      4  C   LIG d   1      -8.579  78.778 117.974  0.00  0.00     0.028 C 
ATOM      5  C   LIG d   1      -7.555  77.668 117.757  0.00  0.00    -0.047 C 
ATOM      6  C   LIG d   1      -8.287  76.399 117.264  0.00  0.00     0.091 C 
ENDROOT
BRANCH   1   7
ATOM      7  O   LIG d   1     -10.345  75.105 117.568  0.00  0.00    -0.368 OA
BRANCH   7   8
ATOM      8  C   LIG d   1     -10.702  73.893 118.277  0.00  0.00     0.119 C 
BRANCH   8   9
ATOM      9  C   LIG d   1      -9.662  72.817 117.906  0.00  0.00     0.028 C 
ATOM     10  C   LIG d   1     -10.289  71.631 117.154  0.00  0.00     0.006 C 
ENDBRANCH   8   9
BRANCH   8  11
ATOM     11  C   LIG d   1     -12.047  73.340 117.796  0.00  0.00     0.028 C 
ATOM     12  C   LIG d   1     -13.104  73.292 118.911  0.00  0.00     0.006 C 
ENDBRANCH   8  11
ENDBRANCH   7   8
ENDBRANCH   1   7
BRANCH   6  13
ATOM     13  N   LIG d   1      -7.370  75.241 117.107  0.00  0.00    -0.311 N 
ATOM     14  C   LIG d   1      -6.744  74.950 115.968  0.00  0.00     0.210 C 
ATOM     15  C   LIG d   1      -5.859  73.700 116.018  0.00  0.00     0.109 C 
ATOM     16  O   LIG d   1      -6.811  75.627 114.931  0.00  0.00    -0.276 OA
ATOM     17  H   LIG d   1      -7.233  74.656 117.908  0.00  0.00     0.149 HD
ENDBRANCH   6  13
BRANCH   5  18
ATOM     18  N   LIG d   1      -6.553  78.168 116.797  0.00  0.00     0.381 N 
ATOM     19  H   LIG d   1      -7.006  78.451 115.951  0.00  0.00    -0.090 HD
ATOM     20  H   LIG d   1      -5.913  77.425 116.579  0.00  0.00    -0.090 HD
ATOM     21  H   LIG d   1      -6.058  78.937 117.191  0.00  0.00    -0.090 HD
ENDBRANCH   5  18
BRANCH   3  22
ATOM     22  C   LIG d   1     -10.290  79.350 119.550  0.00  0.00     0.382 C 
ATOM     23  O   LIG d   1     -10.248  80.556 119.208  0.00  0.00    -0.241 OA
ATOM     24  O   LIG d   1     -10.858  79.033 120.612  0.00  0.00    -0.241 OA
ENDBRANCH   3  22
TORSDOF 7
ENDMDL
MODEL 4
REMARK VINA RESULT:      -5.5      2.407      5.089
REMARK  7 active torsions:
REMARK  status: ('A' for Active; 'I' for Inactive)
REMARK    1  A    between atoms: C_2  and  C_3 
REMARK    2  A    between atoms: C_3  and  O_6 
REMARK    3  A    between atoms: C_3  and  C_4 
REMARK    4  A    between atoms: C_7  and  O_6 
REMARK    5  A    between atoms: C_9  and  C_10 
REMARK    6  A    between atoms: N_15  and  C_14 
REMARK    7  A    between atoms: N_20  and  C_19 
REMARK       I    between atoms: C_22  and  N_20 
ROOT
ATOM      1  C   LIG d   1      -8.470  75.561 117.445  0.00  0.00     0.161 C 
ATOM      2  C   LIG d   1      -7.671  76.716 117.387  0.00  0.00     0.016 C 
ATOM      3  C   LIG d   1      -8.000  77.923 118.046  0.00  0.00     0.038 C 
ATOM      4  C   LIG d   1      -9.079  78.011 118.938  0.00  0.00     0.028 C 
ATOM      5  C   LIG d   1     -10.198  77.020 118.634  0.00  0.00    -0.047 C 
ATOM      6  C   LIG d   1      -9.593  75.604 118.503  0.00  0.00     0.091 C 
ENDROOT
BRANCH   1   7
ATOM      7  O   LIG d   1      -7.637  74.401 117.645  0.00  0.00    -0.368 OA
BRANCH   7   8
ATOM      8  C   LIG d   1      -7.668  73.406 116.593  0.00  0.00     0.119 C 
BRANCH   8   9
ATOM      9  C   LIG d   1      -8.136  72.080 117.223  0.00  0.00     0.028 C 
ATOM     10  C   LIG d   1      -8.083  70.908 116.229  0.00  0.00     0.006 C 
ENDBRANCH   8   9
BRANCH   8  11
ATOM     11  C   LIG d   1      -6.263  73.124 116.052  0.00  0.00     0.028 C 
ATOM     12  C   LIG d   1      -5.945  73.918 114.775  0.00  0.00     0.006 C 
ENDBRANCH   8  11
ENDBRANCH   7   8
ENDBRANCH   1   7
BRANCH   6  13
ATOM     13  N   LIG d   1     -10.607  74.587 118.122  0.00  0.00    -0.311 N 
ATOM     14  C   LIG d   1     -11.248  73.824 119.007  0.00  0.00     0.210 C 
ATOM     15  C   LIG d   1     -12.239  72.826 118.401  0.00  0.00     0.109 C 
ATOM     16  O   LIG d   1     -11.113  73.902 120.237  0.00  0.00    -0.276 OA
ATOM     17  H   LIG d   1     -10.802  74.479 117.146  0.00  0.00     0.149 HD
ENDBRANCH   6  13
BRANCH   5  18
ATOM     18  N   LIG d   1     -11.193  77.126 119.718  0.00  0.00     0.381 N 
ATOM     19  H   LIG d   1     -12.116  77.135 119.331  0.00  0.00    -0.090 HD
ATOM     20  H   LIG d   1     -11.049  77.990 120.209  0.00  0.00    -0.090 HD
ATOM     21  H   LIG d   1     -11.096  76.358 120.346  0.00  0.00    -0.090 HD
ENDBRANCH   5  18
BRANCH   3  22
ATOM     22  C   LIG d   1      -7.266  79.070 117.785  0.00  0.00     0.382 C 
ATOM     23  O   LIG d   1      -6.108  79.194 118.252  0.00  0.00    -0.241 OA
ATOM     24  O   LIG d   1      -7.764  80.001 117.124  0.00  0.00    -0.241 OA
ENDBRANCH   3  22
TORSDOF 7
ENDMDL
MODEL 5
REMARK VINA RESULT:      -5.4     17.944     20.312
REMARK  7 active torsions:
REMARK  status: ('A' for Active; 'I' for Inactive)
REMARK    1  A    between atoms: C_2  and  C_3 
REMARK    2  A    between atoms: C_3  and  O_6 
REMARK    3  A    between atoms: C_3  and  C_4 
REMARK    4  A    between atoms: C_7  and  O_6 
REMARK    5  A    between atoms: C_9  and  C_10 
REMARK    6  A    between atoms: N_15  and  C_14 
REMARK    7  A    between atoms: N_20  and  C_19 
REMARK       I    between atoms: C_22  and  N_20 
ROOT
ATOM      1  C   LIG d   1      -5.944  93.470 117.510  0.00  0.00     0.161 C 
ATOM      2  C   LIG d   1      -6.831  92.616 116.833  0.00  0.00     0.016 C 
ATOM      3  C   LIG d   1      -6.454  91.359 116.309  0.00  0.00     0.038 C 
ATOM      4  C   LIG d   1      -5.192  90.799 116.559  0.00  0.00     0.028 C 
ATOM      5  C   LIG d   1      -4.106  91.841 116.805  0.00  0.00    -0.047 C 
ATOM      6  C   LIG d   1      -4.593  92.828 117.890  0.00  0.00     0.091 C 
ENDROOT
BRANCH   1   7
ATOM      7  O   LIG d   1      -6.586  94.015 118.680  0.00  0.00    -0.368 OA
BRANCH   7   8
ATOM      8  C   LIG d   1      -6.788  95.449 118.686  0.00  0.00     0.119 C 
BRANCH   8   9
ATOM      9  C   LIG d   1      -6.002  96.022 119.881  0.00  0.00     0.028 C 
ATOM     10  C   LIG d   1      -4.954  97.062 119.449  0.00  0.00     0.006 C 
ENDBRANCH   8   9
BRANCH   8  11
ATOM     11  C   LIG d   1      -8.253  95.804 118.956  0.00  0.00     0.028 C 
ATOM     12  C   LIG d   1      -8.460  96.482 120.320  0.00  0.00     0.006 C 
ENDBRANCH   8  11
ENDBRANCH   7   8
ENDBRANCH   1   7
BRANCH   6  13
ATOM     13  N   LIG d   1      -3.624  93.929 118.131  0.00  0.00    -0.311 N 
ATOM     14  C   LIG d   1      -2.690  93.888 119.080  0.00  0.00     0.210 C 
ATOM     15  C   LIG d   1      -1.807  95.137 119.172  0.00  0.00     0.109 C 
ATOM     16  O   LIG d   1      -2.488  92.924 119.833  0.00  0.00    -0.276 OA
ATOM     17  H   LIG d   1      -3.696  94.737 117.545  0.00  0.00     0.149 HD
ENDBRANCH   6  13
BRANCH   5  18
ATOM     18  N   LIG d   1      -2.877  91.120 117.189  0.00  0.00     0.381 N 
ATOM     19  H   LIG d   1      -2.933  90.168 116.886  0.00  0.00    -0.090 HD
ATOM     20  H   LIG d   1      -2.794  91.128 118.190  0.00  0.00    -0.090 HD
ATOM     21  H   LIG d   1      -2.082  91.560 116.779  0.00  0.00    -0.090 HD
ENDBRANCH   5  18
BRANCH   3  22
ATOM     22  C   LIG d   1      -7.331  90.665 115.489  0.00  0.00     0.382 C 
ATOM     23  O   LIG d   1      -8.277  91.269 114.930  0.00  0.00    -0.241 OA
ATOM     24  O   LIG d   1      -7.215  89.434 115.338  0.00  0.00    -0.241 OA
ENDBRANCH   3  22
TORSDOF 7
ENDMDL
MODEL 6
REMARK VINA RESULT:      -5.4      2.662      5.206
REMARK  7 active torsions:
REMARK  status: ('A' for Active; 'I' for Inactive)
REMARK    1  A    between atoms: C_2  and  C_3 
REMARK    2  A    between atoms: C_3  and  O_6 
REMARK    3  A    between atoms: C_3  and  C_4 
REMARK    4  A    between atoms: C_7  and  O_6 
REMARK    5  A    between atoms: C_9  and  C_10 
REMARK    6  A    between atoms: N_15  and  C_14 
REMARK    7  A    between atoms: N_20  and  C_19 
REMARK       I    between atoms: C_22  and  N_20 
ROOT
ATOM      1  C   LIG d   1      -7.695  75.298 116.867  0.00  0.00     0.161 C 
ATOM      2  C   LIG d   1      -6.666  75.004 115.957  0.00  0.00     0.016 C 
ATOM      3  C   LIG d   1      -5.685  75.942 115.562  0.00  0.00     0.038 C 
ATOM      4  C   LIG d   1      -5.575  77.201 116.172  0.00  0.00     0.028 C 
ATOM      5  C   LIG d   1      -6.896  77.721 116.729  0.00  0.00    -0.047 C 
ATOM      6  C   LIG d   1      -7.526  76.631 117.626  0.00  0.00     0.091 C 
ENDROOT
BRANCH   1   7
ATOM      7  O   LIG d   1      -7.850  74.208 117.797  0.00  0.00    -0.368 OA
BRANCH   7   8
ATOM      8  C   LIG d   1      -8.902  73.258 117.497  0.00  0.00     0.119 C 
BRANCH   8   9
ATOM      9  C   LIG d   1      -9.980  73.400 118.589  0.00  0.00     0.028 C 
ATOM     10  C   LIG d   1     -11.340  73.838 118.020  0.00  0.00     0.006 C 
ENDBRANCH   8   9
BRANCH   8  11
ATOM     11  C   LIG d   1      -8.399  71.816 117.608  0.00  0.00     0.028 C 
ATOM     12  C   LIG d   1      -7.897  71.255 116.268  0.00  0.00     0.006 C 
ENDBRANCH   8  11
ENDBRANCH   7   8
ENDBRANCH   1   7
BRANCH   6  13
ATOM     13  N   LIG d   1      -8.862  77.026 118.144  0.00  0.00    -0.311 N 
ATOM     14  C   LIG d   1      -9.200  76.954 119.430  0.00  0.00     0.210 C 
ATOM     15  C   LIG d   1     -10.633  77.391 119.748  0.00  0.00     0.109 C 
ATOM     16  O   LIG d   1      -8.438  76.600 120.343  0.00  0.00    -0.276 OA
ATOM     17  H   LIG d   1      -9.532  77.354 117.476  0.00  0.00     0.149 HD
ENDBRANCH   6  13
BRANCH   5  18
ATOM     18  N   LIG d   1      -6.612  78.974 117.455  0.00  0.00     0.381 N 
ATOM     19  H   LIG d   1      -7.386  79.207 118.043  0.00  0.00    -0.090 HD
ATOM     20  H   LIG d   1      -6.487  79.715 116.788  0.00  0.00    -0.090 HD
ATOM     21  H   LIG d   1      -5.787  78.869 118.004  0.00  0.00    -0.090 HD
ENDBRANCH   5  18
BRANCH   3  22
ATOM     22  C   LIG d   1      -4.823  75.638 114.520  0.00  0.00     0.382 C 
ATOM     23  O   LIG d   1      -4.328  74.489 114.430  0.00  0.00    -0.241 OA
ATOM     24  O   LIG d   1      -4.500  76.511 113.692  0.00  0.00    -0.241 OA
ENDBRANCH   3  22
TORSDOF 7
ENDMDL
MODEL 7
REMARK VINA RESULT:      -5.3      3.013      5.050
REMARK  7 active torsions:
REMARK  status: ('A' for Active; 'I' for Inactive)
REMARK    1  A    between atoms: C_2  and  C_3 
REMARK    2  A    between atoms: C_3  and  O_6 
REMARK    3  A    between atoms: C_3  and  C_4 
REMARK    4  A    between atoms: C_7  and  O_6 
REMARK    5  A    between atoms: C_9  and  C_10 
REMARK    6  A    between atoms: N_15  and  C_14 
REMARK    7  A    between atoms: N_20  and  C_19 
REMARK       I    between atoms: C_22  and  N_20 
ROOT
ATOM      1  C   LIG d   1      -7.350  76.177 117.207  0.00  0.00     0.161 C 
ATOM      2  C   LIG d   1      -6.440  76.409 116.163  0.00  0.00     0.016 C 
ATOM      3  C   LIG d   1      -5.900  75.380 115.357  0.00  0.00     0.038 C 
ATOM      4  C   LIG d   1      -6.354  74.056 115.444  0.00  0.00     0.028 C 
ATOM      5  C   LIG d   1      -6.899  73.691 116.820  0.00  0.00    -0.047 C 
ATOM      6  C   LIG d   1      -7.941  74.752 117.244  0.00  0.00     0.091 C 
ENDROOT
BRANCH   1   7
ATOM      7  O   LIG d   1      -8.407  77.156 117.161  0.00  0.00    -0.368 OA
BRANCH   7   8
ATOM      8  C   LIG d   1      -8.426  78.124 118.240  0.00  0.00     0.119 C 
BRANCH   8   9
ATOM      9  C   LIG d   1      -9.772  77.972 118.974  0.00  0.00     0.028 C 
ATOM     10  C   LIG d   1      -9.598  77.500 120.427  0.00  0.00     0.006 C 
ENDBRANCH   8   9
BRANCH   8  11
ATOM     11  C   LIG d   1      -8.416  79.558 117.702  0.00  0.00     0.028 C 
ATOM     12  C   LIG d   1      -9.767  80.269 117.877  0.00  0.00     0.006 C 
ENDBRANCH   8  11
ENDBRANCH   7   8
ENDBRANCH   1   7
BRANCH   6  13
ATOM     13  N   LIG d   1      -8.464  74.517 118.615  0.00  0.00    -0.311 N 
ATOM     14  C   LIG d   1      -9.601  73.871 118.866  0.00  0.00     0.210 C 
ATOM     15  C   LIG d   1      -9.966  73.757 120.349  0.00  0.00     0.109 C 
ATOM     16  O   LIG d   1     -10.326  73.355 118.003  0.00  0.00    -0.276 OA
ATOM     17  H   LIG d   1      -7.922  74.876 119.377  0.00  0.00     0.149 HD
ENDBRANCH   6  13
BRANCH   5  18
ATOM     18  N   LIG d   1      -7.463  72.331 116.730  0.00  0.00     0.381 N 
ATOM     19  H   LIG d   1      -6.813  71.725 116.270  0.00  0.00    -0.090 HD
ATOM     20  H   LIG d   1      -8.305  72.363 116.184  0.00  0.00    -0.090 HD
ATOM     21  H   LIG d   1      -7.663  71.984 117.643  0.00  0.00    -0.090 HD
ENDBRANCH   5  18
BRANCH   3  22
ATOM     22  C   LIG d   1      -4.866  75.666 114.479  0.00  0.00     0.382 C 
ATOM     23  O   LIG d   1      -3.757  75.094 114.609  0.00  0.00    -0.241 OA
ATOM     24  O   LIG d   1      -5.014  76.522 113.585  0.00  0.00    -0.241 OA
ENDBRANCH   3  22
TORSDOF 7
ENDMDL
MODEL 8
REMARK VINA RESULT:      -5.2     17.278     19.166
REMARK  7 active torsions:
REMARK  status: ('A' for Active; 'I' for Inactive)
REMARK    1  A    between atoms: C_2  and  C_3 
REMARK    2  A    between atoms: C_3  and  O_6 
REMARK    3  A    between atoms: C_3  and  C_4 
REMARK    4  A    between atoms: C_7  and  O_6 
REMARK    5  A    between atoms: C_9  and  C_10 
REMARK    6  A    between atoms: N_15  and  C_14 
REMARK    7  A    between atoms: N_20  and  C_19 
REMARK       I    between atoms: C_22  and  N_20 
ROOT
ATOM      1  C   LIG d   1      -4.073  91.594 117.626  0.00  0.00     0.161 C 
ATOM      2  C   LIG d   1      -4.897  90.977 116.670  0.00  0.00     0.016 C 
ATOM      3  C   LIG d   1      -6.143  91.505 116.259  0.00  0.00     0.038 C 
ATOM      4  C   LIG d   1      -6.582  92.772 116.669  0.00  0.00     0.028 C 
ATOM      5  C   LIG d   1      -6.021  93.200 118.021  0.00  0.00    -0.047 C 
ATOM      6  C   LIG d   1      -4.485  93.033 118.002  0.00  0.00     0.091 C 
ENDROOT
BRANCH   1   7
ATOM      7  O   LIG d   1      -2.702  91.565 117.182  0.00  0.00    -0.368 OA
BRANCH   7   8
ATOM      8  C   LIG d   1      -1.757  90.927 118.076  0.00  0.00     0.119 C 
BRANCH   8   9
ATOM      9  C   LIG d   1      -0.355  91.082 117.454  0.00  0.00     0.028 C 
ATOM     10  C   LIG d   1       0.179  92.520 117.563  0.00  0.00     0.006 C 
ENDBRANCH   8   9
BRANCH   8  11
ATOM     11  C   LIG d   1      -1.999  89.417 118.158  0.00  0.00     0.028 C 
ATOM     12  C   LIG d   1      -0.722  88.595 117.924  0.00  0.00     0.006 C 
ENDBRANCH   8  11
ENDBRANCH   7   8
ENDBRANCH   1   7
BRANCH   6  13
ATOM     13  N   LIG d   1      -3.864  93.350 119.315  0.00  0.00    -0.311 N 
ATOM     14  C   LIG d   1      -2.847  94.199 119.459  0.00  0.00     0.210 C 
ATOM     15  C   LIG d   1      -2.345  94.367 120.896  0.00  0.00     0.109 C 
ATOM     16  O   LIG d   1      -2.336  94.853 118.538  0.00  0.00    -0.276 OA
ATOM     17  H   LIG d   1      -4.238  92.887 120.120  0.00  0.00     0.149 HD
ENDBRANCH   6  13
BRANCH   5  18
ATOM     18  N   LIG d   1      -6.449  94.591 118.261  0.00  0.00     0.381 N 
ATOM     19  H   LIG d   1      -7.290  94.599 118.802  0.00  0.00    -0.090 HD
ATOM     20  H   LIG d   1      -6.638  95.030 117.377  0.00  0.00    -0.090 HD
ATOM     21  H   LIG d   1      -5.732  95.090 118.741  0.00  0.00    -0.090 HD
ENDBRANCH   5  18
BRANCH   3  22
ATOM     22  C   LIG d   1      -6.981  90.744 115.459  0.00  0.00     0.382 C 
ATOM     23  O   LIG d   1      -8.043  91.241 115.013  0.00  0.00    -0.241 OA
ATOM     24  O   LIG d   1      -6.712  89.552 115.215  0.00  0.00    -0.241 OA
ENDBRANCH   3  22
TORSDOF 7
ENDMDL
MODEL 9
REMARK VINA RESULT:      -4.8      3.567      5.385
REMARK  7 active torsions:
REMARK  status: ('A' for Active; 'I' for Inactive)
REMARK    1  A    between atoms: C_2  and  C_3 
REMARK    2  A    between atoms: C_3  and  O_6 
REMARK    3  A    between atoms: C_3  and  C_4 
REMARK    4  A    between atoms: C_7  and  O_6 
REMARK    5  A    between atoms: C_9  and  C_10 
REMARK    6  A    between atoms: N_15  and  C_14 
REMARK    7  A    between atoms: N_20  and  C_19 
REMARK       I    between atoms: C_22  and  N_20 
ROOT
ATOM      1  C   LIG d   1      -6.662  77.723 117.088  0.00  0.00     0.161 C 
ATOM      2  C   LIG d   1      -5.782  77.383 116.046  0.00  0.00     0.016 C 
ATOM      3  C   LIG d   1      -5.689  76.083 115.499  0.00  0.00     0.038 C 
ATOM      4  C   LIG d   1      -6.582  75.062 115.857  0.00  0.00     0.028 C 
ATOM      5  C   LIG d   1      -7.152  75.221 117.262  0.00  0.00    -0.047 C 
ATOM      6  C   LIG d   1      -7.722  76.650 117.414  0.00  0.00     0.091 C 
ENDROOT
BRANCH   1   7
ATOM      7  O   LIG d   1      -7.298  78.984 116.799  0.00  0.00    -0.368 OA
BRANCH   7   8
ATOM      8  C   LIG d   1      -7.047  80.055 117.742  0.00  0.00     0.119 C 
BRANCH   8   9
ATOM      9  C   LIG d   1      -8.240  81.027 117.666  0.00  0.00     0.028 C 
ATOM     10  C   LIG d   1      -9.590  80.315 117.849  0.00  0.00     0.006 C 
ENDBRANCH   8   9
BRANCH   8  11
ATOM     11  C   LIG d   1      -5.823  80.881 117.335  0.00  0.00     0.028 C 
ATOM     12  C   LIG d   1      -4.631  80.688 118.285  0.00  0.00     0.006 C 
ENDBRANCH   8  11
ENDBRANCH   7   8
ENDBRANCH   1   7
BRANCH   6  13
ATOM     13  N   LIG d   1      -8.224  76.917 118.787  0.00  0.00    -0.311 N 
ATOM     14  C   LIG d   1      -9.514  76.880 119.117  0.00  0.00     0.210 C 
ATOM     15  C   LIG d   1      -9.817  77.206 120.583  0.00  0.00     0.109 C 
ATOM     16  O   LIG d   1     -10.433  76.575 118.342  0.00  0.00    -0.276 OA
ATOM     17  H   LIG d   1      -7.543  77.142 119.486  0.00  0.00     0.149 HD
ENDBRANCH   6  13
BRANCH   5  18
ATOM     18  N   LIG d   1      -8.170  74.170 117.452  0.00  0.00     0.381 N 
ATOM     19  H   LIG d   1      -8.462  73.818 116.563  0.00  0.00    -0.090 HD
ATOM     20  H   LIG d   1      -8.969  74.570 117.912  0.00  0.00    -0.090 HD
ATOM     21  H   LIG d   1      -7.796  73.430 118.004  0.00  0.00    -0.090 HD
ENDBRANCH   5  18
BRANCH   3  22
ATOM     22  C   LIG d   1      -4.667  75.783 114.612  0.00  0.00     0.382 C 
ATOM     23  O   LIG d   1      -3.903  74.814 114.840  0.00  0.00    -0.241 OA
ATOM     24  O   LIG d   1      -4.471  76.495 113.609  0.00  0.00    -0.241 OA
ENDBRANCH   3  22
TORSDOF 7
ENDMDL
