MODEL 1
REMARK VINA RESULT:      -5.0      0.000      0.000
REMARK  7 active torsions:
REMARK  status: ('A' for Active; 'I' for Inactive)
REMARK    1  A    between atoms: C_2  and  C_3 
REMARK    2  A    between atoms: C_3  and  O_6 
REMARK    3  A    between atoms: C_3  and  C_4 
REMARK    4  A    between atoms: C_7  and  O_6 
REMARK    5  A    between atoms: C_9  and  C_10 
REMARK    6  A    between atoms: N_15  and  C_14 
REMARK    7  A    between atoms: N_20  and  C_19 
REMARK       I    between atoms: C_22  and  N_20 
ROOT
ATOM      1  C   LIG d   1      -4.419  76.438 117.941  0.00  0.00     0.161 C 
ATOM      2  C   LIG d   1      -5.595  77.186 117.765  0.00  0.00     0.016 C 
ATOM      3  C   LIG d   1      -5.605  78.525 117.310  0.00  0.00     0.038 C 
ATOM      4  C   LIG d   1      -4.441  79.162 116.853  0.00  0.00     0.028 C 
ATOM      5  C   LIG d   1      -3.165  78.618 117.487  0.00  0.00    -0.047 C 
ATOM      6  C   LIG d   1      -3.149  77.079 117.343  0.00  0.00     0.091 C 
ENDROOT
BRANCH   1   7
ATOM      7  O   LIG d   1      -4.603  75.108 117.418  0.00  0.00    -0.368 OA
BRANCH   7   8
ATOM      8  C   LIG d   1      -5.758  74.912 116.566  0.00  0.00     0.119 C 
BRANCH   8   9
ATOM      9  C   LIG d   1      -6.477  73.637 117.048  0.00  0.00     0.028 C 
ATOM     10  C   LIG d   1      -6.139  72.411 116.183  0.00  0.00     0.006 C 
ENDBRANCH   8   9
BRANCH   8  11
ATOM     11  C   LIG d   1      -5.342  74.622 115.121  0.00  0.00     0.028 C 
ATOM     12  C   LIG d   1      -5.583  75.815 114.182  0.00  0.00     0.006 C 
ENDBRANCH   8  11
ENDBRANCH   7   8
ENDBRANCH   1   7
BRANCH   6  13
ATOM     13  N   LIG d   1      -1.975  76.459 118.011  0.00  0.00    -0.311 N 
ATOM     14  C   LIG d   1      -1.160  75.596 117.408  0.00  0.00     0.210 C 
ATOM     15  C   LIG d   1      -0.022  75.061 118.284  0.00  0.00     0.109 C 
ATOM     16  O   LIG d   1      -1.252  75.247 116.221  0.00  0.00    -0.276 OA
ATOM     17  H   LIG d   1      -1.808  76.711 118.965  0.00  0.00     0.149 HD
ENDBRANCH   6  13
BRANCH   5  18
ATOM     18  N   LIG d   1      -2.023  79.273 116.822  0.00  0.00     0.381 N 
ATOM     19  H   LIG d   1      -2.127  79.209 115.829  0.00  0.00    -0.090 HD
ATOM     20  H   LIG d   1      -1.178  78.796 117.082  0.00  0.00    -0.090 HD
ATOM     21  H   LIG d   1      -1.971  80.229 117.097  0.00  0.00    -0.090 HD
ENDBRANCH   5  18
BRANCH   3  22
ATOM     22  C   LIG d   1      -6.784  79.254 117.346  0.00  0.00     0.382 C 
ATOM     23  O   LIG d   1      -6.763  80.489 117.126  0.00  0.00    -0.241 OA
ATOM     24  O   LIG d   1      -7.860  78.701 117.639  0.00  0.00    -0.241 OA
ENDBRANCH   3  22
TORSDOF 7
ENDMDL
MODEL 2
REMARK VINA RESULT:      -5.0     13.612     16.258
REMARK  7 active torsions:
REMARK  status: ('A' for Active; 'I' for Inactive)
REMARK    1  A    between atoms: C_2  and  C_3 
REMARK    2  A    between atoms: C_3  and  O_6 
REMARK    3  A    between atoms: C_3  and  C_4 
REMARK    4  A    between atoms: C_7  and  O_6 
REMARK    5  A    between atoms: C_9  and  C_10 
REMARK    6  A    between atoms: N_15  and  C_14 
REMARK    7  A    between atoms: N_20  and  C_19 
REMARK       I    between atoms: C_22  and  N_20 
ROOT
ATOM      1  C   LIG d   1      -5.037  92.970 117.256  0.00  0.00     0.161 C 
ATOM      2  C   LIG d   1      -6.204  92.279 116.890  0.00  0.00     0.016 C 
ATOM      3  C   LIG d   1      -6.236  90.889 116.633  0.00  0.00     0.038 C 
ATOM      4  C   LIG d   1      -5.127  90.064 116.874  0.00  0.00     0.028 C 
ATOM      5  C   LIG d   1      -3.793  90.794 116.759  0.00  0.00    -0.047 C 
ATOM      6  C   LIG d   1      -3.842  92.069 117.632  0.00  0.00     0.091 C 
ENDROOT
BRANCH   1   7
ATOM      7  O   LIG d   1      -5.329  93.888 118.329  0.00  0.00    -0.368 OA
BRANCH   7   8
ATOM      8  C   LIG d   1      -6.592  93.689 119.012  0.00  0.00     0.119 C 
BRANCH   8   9
ATOM      9  C   LIG d   1      -7.322  95.045 119.037  0.00  0.00     0.028 C 
ATOM     10  C   LIG d   1      -7.946  95.402 117.677  0.00  0.00     0.006 C 
ENDBRANCH   8   9
BRANCH   8  11
ATOM     11  C   LIG d   1      -6.377  93.316 120.481  0.00  0.00     0.028 C 
ATOM     12  C   LIG d   1      -5.719  91.938 120.656  0.00  0.00     0.006 C 
ENDBRANCH   8  11
ENDBRANCH   7   8
ENDBRANCH   1   7
BRANCH   6  13
ATOM     13  N   LIG d   1      -2.607  92.886 117.511  0.00  0.00    -0.311 N 
ATOM     14  C   LIG d   1      -1.877  93.272 118.557  0.00  0.00     0.210 C 
ATOM     15  C   LIG d   1      -0.653  94.126 118.212  0.00  0.00     0.109 C 
ATOM     16  O   LIG d   1      -2.110  92.960 119.735  0.00  0.00    -0.276 OA
ATOM     17  H   LIG d   1      -2.327  93.157 116.589  0.00  0.00     0.149 HD
ENDBRANCH   6  13
BRANCH   5  18
ATOM     18  N   LIG d   1      -2.734  89.853 117.169  0.00  0.00     0.381 N 
ATOM     19  H   LIG d   1      -1.953  89.931 116.548  0.00  0.00    -0.090 HD
ATOM     20  H   LIG d   1      -3.091  88.916 117.110  0.00  0.00    -0.090 HD
ATOM     21  H   LIG d   1      -2.446  90.049 118.103  0.00  0.00    -0.090 HD
ENDBRANCH   5  18
BRANCH   3  22
ATOM     22  C   LIG d   1      -7.377  90.317 116.091  0.00  0.00     0.382 C 
ATOM     23  O   LIG d   1      -7.733  89.168 116.450  0.00  0.00    -0.241 OA
ATOM     24  O   LIG d   1      -8.030  90.916 115.216  0.00  0.00    -0.241 OA
ENDBRANCH   3  22
TORSDOF 7
ENDMDL
MODEL 3
REMARK VINA RESULT:      -5.0     13.737     17.003
REMARK  7 active torsions:
REMARK  status: ('A' for Active; 'I' for Inactive)
REMARK    1  A    between atoms: C_2  and  C_3 
REMARK    2  A    between atoms: C_3  and  O_6 
REMARK    3  A    between atoms: C_3  and  C_4 
REMARK    4  A    between atoms: C_7  and  O_6 
REMARK    5  A    between atoms: C_9  and  C_10 
REMARK    6  A    between atoms: N_15  and  C_14 
REMARK    7  A    between atoms: N_20  and  C_19 
REMARK       I    between atoms: C_22  and  N_20 
ROOT
ATOM      1  C   LIG d   1      -6.108  92.702 118.094  0.00  0.00     0.161 C 
ATOM      2  C   LIG d   1      -4.941  93.451 118.321  0.00  0.00     0.016 C 
ATOM      3  C   LIG d   1      -3.661  93.053 117.873  0.00  0.00     0.038 C 
ATOM      4  C   LIG d   1      -3.482  91.946 117.030  0.00  0.00     0.028 C 
ATOM      5  C   LIG d   1      -4.560  90.880 117.193  0.00  0.00    -0.047 C 
ATOM      6  C   LIG d   1      -5.949  91.549 117.081  0.00  0.00     0.091 C 
ENDROOT
BRANCH   1   7
ATOM      7  O   LIG d   1      -7.180  93.578 117.692  0.00  0.00    -0.368 OA
BRANCH   7   8
ATOM      8  C   LIG d   1      -7.297  94.821 118.426  0.00  0.00     0.119 C 
BRANCH   8   9
ATOM      9  C   LIG d   1      -8.056  94.518 119.732  0.00  0.00     0.028 C 
ATOM     10  C   LIG d   1      -7.446  95.237 120.947  0.00  0.00     0.006 C 
ENDBRANCH   8   9
BRANCH   8  11
ATOM     11  C   LIG d   1      -8.168  95.832 117.675  0.00  0.00     0.028 C 
ATOM     12  C   LIG d   1      -7.549  97.238 117.634  0.00  0.00     0.006 C 
ENDBRANCH   8  11
ENDBRANCH   7   8
ENDBRANCH   1   7
BRANCH   6  13
ATOM     13  N   LIG d   1      -7.060  90.590 117.313  0.00  0.00    -0.311 N 
ATOM     14  C   LIG d   1      -7.612  89.859 116.346  0.00  0.00     0.210 C 
ATOM     15  C   LIG d   1      -8.758  88.949 116.797  0.00  0.00     0.109 C 
ATOM     16  O   LIG d   1      -7.239  89.855 115.163  0.00  0.00    -0.276 OA
ATOM     17  H   LIG d   1      -7.404  90.508 118.250  0.00  0.00     0.149 HD
ENDBRANCH   6  13
BRANCH   5  18
ATOM     18  N   LIG d   1      -4.329  89.851 116.161  0.00  0.00     0.381 N 
ATOM     19  H   LIG d   1      -5.094  89.840 115.516  0.00  0.00    -0.090 HD
ATOM     20  H   LIG d   1      -4.278  88.951 116.605  0.00  0.00    -0.090 HD
ATOM     21  H   LIG d   1      -3.479  90.039 115.676  0.00  0.00    -0.090 HD
ENDBRANCH   5  18
BRANCH   3  22
ATOM     22  C   LIG d   1      -2.537  93.743 118.301  0.00  0.00     0.382 C 
ATOM     23  O   LIG d   1      -1.478  93.695 117.630  0.00  0.00    -0.241 OA
ATOM     24  O   LIG d   1      -2.556  94.377 119.373  0.00  0.00    -0.241 OA
ENDBRANCH   3  22
TORSDOF 7
ENDMDL
MODEL 4
REMARK VINA RESULT:      -5.0     14.132     17.517
REMARK  7 active torsions:
REMARK  status: ('A' for Active; 'I' for Inactive)
REMARK    1  A    between atoms: C_2  and  C_3 
REMARK    2  A    between atoms: C_3  and  O_6 
REMARK    3  A    between atoms: C_3  and  C_4 
REMARK    4  A    between atoms: C_7  and  O_6 
REMARK    5  A    between atoms: C_9  and  C_10 
REMARK    6  A    between atoms: N_15  and  C_14 
REMARK    7  A    between atoms: N_20  and  C_19 
REMARK       I    between atoms: C_22  and  N_20 
ROOT
ATOM      1  C   LIG d   1      -5.820  92.490 118.545  0.00  0.00     0.161 C 
ATOM      2  C   LIG d   1      -5.103  91.430 117.965  0.00  0.00     0.016 C 
ATOM      3  C   LIG d   1      -5.215  91.068 116.603  0.00  0.00     0.038 C 
ATOM      4  C   LIG d   1      -5.943  91.843 115.688  0.00  0.00     0.028 C 
ATOM      5  C   LIG d   1      -7.084  92.626 116.329  0.00  0.00    -0.047 C 
ATOM      6  C   LIG d   1      -6.533  93.416 117.538  0.00  0.00     0.091 C 
ENDROOT
BRANCH   1   7
ATOM      7  O   LIG d   1      -4.950  93.257 119.401  0.00  0.00    -0.368 OA
BRANCH   7   8
ATOM      8  C   LIG d   1      -4.192  94.312 118.760  0.00  0.00     0.119 C 
BRANCH   8   9
ATOM      9  C   LIG d   1      -2.698  94.010 118.982  0.00  0.00     0.028 C 
ATOM     10  C   LIG d   1      -1.997  93.538 117.697  0.00  0.00     0.006 C 
ENDBRANCH   8   9
BRANCH   8  11
ATOM     11  C   LIG d   1      -4.437  95.665 119.435  0.00  0.00     0.028 C 
ATOM     12  C   LIG d   1      -5.245  95.542 120.737  0.00  0.00     0.006 C 
ENDBRANCH   8  11
ENDBRANCH   7   8
ENDBRANCH   1   7
BRANCH   6  13
ATOM     13  N   LIG d   1      -7.600  94.144 118.273  0.00  0.00    -0.311 N 
ATOM     14  C   LIG d   1      -7.893  95.426 118.062  0.00  0.00     0.210 C 
ATOM     15  C   LIG d   1      -9.015  95.986 118.942  0.00  0.00     0.109 C 
ATOM     16  O   LIG d   1      -7.352  96.143 117.207  0.00  0.00    -0.276 OA
ATOM     17  H   LIG d   1      -8.111  93.629 118.964  0.00  0.00     0.149 HD
ENDBRANCH   6  13
BRANCH   5  18
ATOM     18  N   LIG d   1      -7.669  93.494 115.289  0.00  0.00     0.381 N 
ATOM     19  H   LIG d   1      -7.340  94.431 115.406  0.00  0.00    -0.090 HD
ATOM     20  H   LIG d   1      -8.668  93.494 115.391  0.00  0.00    -0.090 HD
ATOM     21  H   LIG d   1      -7.420  93.157 114.385  0.00  0.00    -0.090 HD
ENDBRANCH   5  18
BRANCH   3  22
ATOM     22  C   LIG d   1      -4.627  89.896 116.153  0.00  0.00     0.382 C 
ATOM     23  O   LIG d   1      -4.985  89.395 115.060  0.00  0.00    -0.241 OA
ATOM     24  O   LIG d   1      -3.774  89.311 116.846  0.00  0.00    -0.241 OA
ENDBRANCH   3  22
TORSDOF 7
ENDMDL
MODEL 5
REMARK VINA RESULT:      -4.9      1.839      2.433
REMARK  7 active torsions:
REMARK  status: ('A' for Active; 'I' for Inactive)
REMARK    1  A    between atoms: C_2  and  C_3 
REMARK    2  A    between atoms: C_3  and  O_6 
REMARK    3  A    between atoms: C_3  and  C_4 
REMARK    4  A    between atoms: C_7  and  O_6 
REMARK    5  A    between atoms: C_9  and  C_10 
REMARK    6  A    between atoms: N_15  and  C_14 
REMARK    7  A    between atoms: N_20  and  C_19 
REMARK       I    between atoms: C_22  and  N_20 
ROOT
ATOM      1  C   LIG d   1      -4.622  77.782 116.765  0.00  0.00     0.161 C 
ATOM      2  C   LIG d   1      -5.962  78.181 116.903  0.00  0.00     0.016 C 
ATOM      3  C   LIG d   1      -6.359  79.347 117.598  0.00  0.00     0.038 C 
ATOM      4  C   LIG d   1      -5.426  80.279 118.076  0.00  0.00     0.028 C 
ATOM      5  C   LIG d   1      -4.068  79.665 118.401  0.00  0.00    -0.047 C 
ATOM      6  C   LIG d   1      -3.584  78.845 117.184  0.00  0.00     0.091 C 
ENDROOT
BRANCH   1   7
ATOM      7  O   LIG d   1      -4.378  77.350 115.412  0.00  0.00    -0.368 OA
BRANCH   7   8
ATOM      8  C   LIG d   1      -4.143  75.932 115.229  0.00  0.00     0.119 C 
BRANCH   8   9
ATOM      9  C   LIG d   1      -5.468  75.299 114.762  0.00  0.00     0.028 C 
ATOM     10  C   LIG d   1      -6.126  74.441 115.856  0.00  0.00     0.006 C 
ENDBRANCH   8   9
BRANCH   8  11
ATOM     11  C   LIG d   1      -3.811  75.246 116.557  0.00  0.00     0.028 C 
ATOM     12  C   LIG d   1      -2.422  74.588 116.558  0.00  0.00     0.006 C 
ENDBRANCH   8  11
ENDBRANCH   7   8
ENDBRANCH   1   7
BRANCH   6  13
ATOM     13  N   LIG d   1      -2.302  78.141 117.449  0.00  0.00    -0.311 N 
ATOM     14  C   LIG d   1      -1.217  78.286 116.691  0.00  0.00     0.210 C 
ATOM     15  C   LIG d   1      -0.007  77.454 117.128  0.00  0.00     0.109 C 
ATOM     16  O   LIG d   1      -1.131  79.049 115.717  0.00  0.00    -0.276 OA
ATOM     17  H   LIG d   1      -2.274  77.526 118.238  0.00  0.00     0.149 HD
ENDBRANCH   6  13
BRANCH   5  18
ATOM     18  N   LIG d   1      -3.154  80.767 118.756  0.00  0.00     0.381 N 
ATOM     19  H   LIG d   1      -2.212  80.433 118.773  0.00  0.00    -0.090 HD
ATOM     20  H   LIG d   1      -3.388  81.100 119.675  0.00  0.00    -0.090 HD
ATOM     21  H   LIG d   1      -3.240  81.508 118.095  0.00  0.00    -0.090 HD
ENDBRANCH   5  18
BRANCH   3  22
ATOM     22  C   LIG d   1      -7.703  79.569 117.855  0.00  0.00     0.382 C 
ATOM     23  O   LIG d   1      -8.342  78.773 118.585  0.00  0.00    -0.241 OA
ATOM     24  O   LIG d   1      -8.296  80.531 117.332  0.00  0.00    -0.241 OA
ENDBRANCH   3  22
TORSDOF 7
ENDMDL
MODEL 6
REMARK VINA RESULT:      -4.9      2.835      4.528
REMARK  7 active torsions:
REMARK  status: ('A' for Active; 'I' for Inactive)
REMARK    1  A    between atoms: C_2  and  C_3 
REMARK    2  A    between atoms: C_3  and  O_6 
REMARK    3  A    between atoms: C_3  and  C_4 
REMARK    4  A    between atoms: C_7  and  O_6 
REMARK    5  A    between atoms: C_9  and  C_10 
REMARK    6  A    between atoms: N_15  and  C_14 
REMARK    7  A    between atoms: N_20  and  C_19 
REMARK       I    between atoms: C_22  and  N_20 
ROOT
ATOM      1  C   LIG d   1      -3.222  77.250 117.169  0.00  0.00     0.161 C 
ATOM      2  C   LIG d   1      -4.012  76.402 116.375  0.00  0.00     0.016 C 
ATOM      3  C   LIG d   1      -3.977  76.405 114.961  0.00  0.00     0.038 C 
ATOM      4  C   LIG d   1      -3.034  77.156 114.244  0.00  0.00     0.028 C 
ATOM      5  C   LIG d   1      -2.560  78.401 114.986  0.00  0.00    -0.047 C 
ATOM      6  C   LIG d   1      -2.107  77.996 116.407  0.00  0.00     0.091 C 
ENDROOT
BRANCH   1   7
ATOM      7  O   LIG d   1      -2.664  76.507 118.271  0.00  0.00    -0.368 OA
BRANCH   7   8
ATOM      8  C   LIG d   1      -1.341  75.955 118.063  0.00  0.00     0.119 C 
BRANCH   8   9
ATOM      9  C   LIG d   1      -1.500  74.436 117.857  0.00  0.00     0.028 C 
ATOM     10  C   LIG d   1      -1.225  74.009 116.405  0.00  0.00     0.006 C 
ENDBRANCH   8   9
BRANCH   8  11
ATOM     11  C   LIG d   1      -0.471  76.105 119.315  0.00  0.00     0.028 C 
ATOM     12  C   LIG d   1       1.015  75.824 119.045  0.00  0.00     0.006 C 
ENDBRANCH   8  11
ENDBRANCH   7   8
ENDBRANCH   1   7
BRANCH   6  13
ATOM     13  N   LIG d   1      -1.707  79.168 117.230  0.00  0.00    -0.311 N 
ATOM     14  C   LIG d   1      -0.440  79.466 117.515  0.00  0.00     0.210 C 
ATOM     15  C   LIG d   1      -0.250  80.705 118.395  0.00  0.00     0.109 C 
ATOM     16  O   LIG d   1       0.545  78.839 117.096  0.00  0.00    -0.276 OA
ATOM     17  H   LIG d   1      -2.442  79.748 117.585  0.00  0.00     0.149 HD
ENDBRANCH   6  13
BRANCH   5  18
ATOM     18  N   LIG d   1      -1.482  79.013 114.187  0.00  0.00     0.381 N 
ATOM     19  H   LIG d   1      -1.696  78.935 113.213  0.00  0.00    -0.090 HD
ATOM     20  H   LIG d   1      -0.626  78.516 114.362  0.00  0.00    -0.090 HD
ATOM     21  H   LIG d   1      -1.375  79.972 114.436  0.00  0.00    -0.090 HD
ENDBRANCH   5  18
BRANCH   3  22
ATOM     22  C   LIG d   1      -4.921  75.681 114.249  0.00  0.00     0.382 C 
ATOM     23  O   LIG d   1      -5.772  76.279 113.548  0.00  0.00    -0.241 OA
ATOM     24  O   LIG d   1      -4.961  74.439 114.335  0.00  0.00    -0.241 OA
ENDBRANCH   3  22
TORSDOF 7
ENDMDL
MODEL 7
REMARK VINA RESULT:      -4.8     13.465     16.289
REMARK  7 active torsions:
REMARK  status: ('A' for Active; 'I' for Inactive)
REMARK    1  A    between atoms: C_2  and  C_3 
REMARK    2  A    between atoms: C_3  and  O_6 
REMARK    3  A    between atoms: C_3  and  C_4 
REMARK    4  A    between atoms: C_7  and  O_6 
REMARK    5  A    between atoms: C_9  and  C_10 
REMARK    6  A    between atoms: N_15  and  C_14 
REMARK    7  A    between atoms: N_20  and  C_19 
REMARK       I    between atoms: C_22  and  N_20 
ROOT
ATOM      1  C   LIG d   1      -6.003  91.612 118.650  0.00  0.00     0.161 C 
ATOM      2  C   LIG d   1      -5.768  90.714 117.596  0.00  0.00     0.016 C 
ATOM      3  C   LIG d   1      -5.969  91.041 116.235  0.00  0.00     0.038 C 
ATOM      4  C   LIG d   1      -6.278  92.346 115.824  0.00  0.00     0.028 C 
ATOM      5  C   LIG d   1      -7.017  93.156 116.884  0.00  0.00    -0.047 C 
ATOM      6  C   LIG d   1      -6.234  93.074 118.214  0.00  0.00     0.091 C 
ENDROOT
BRANCH   1   7
ATOM      7  O   LIG d   1      -4.927  91.537 119.605  0.00  0.00    -0.368 OA
BRANCH   7   8
ATOM      8  C   LIG d   1      -3.638  91.133 119.083  0.00  0.00     0.119 C 
BRANCH   8   9
ATOM      9  C   LIG d   1      -3.062  90.072 120.040  0.00  0.00     0.028 C 
ATOM     10  C   LIG d   1      -2.694  88.766 119.316  0.00  0.00     0.006 C 
ENDBRANCH   8   9
BRANCH   8  11
ATOM     11  C   LIG d   1      -2.636  92.292 119.112  0.00  0.00     0.028 C 
ATOM     12  C   LIG d   1      -2.604  93.084 117.796  0.00  0.00     0.006 C 
ENDBRANCH   8  11
ENDBRANCH   7   8
ENDBRANCH   1   7
BRANCH   6  13
ATOM     13  N   LIG d   1      -6.932  93.770 119.327  0.00  0.00    -0.311 N 
ATOM     14  C   LIG d   1      -6.696  95.037 119.661  0.00  0.00     0.210 C 
ATOM     15  C   LIG d   1      -7.511  95.554 120.851  0.00  0.00     0.109 C 
ATOM     16  O   LIG d   1      -5.913  95.792 119.065  0.00  0.00    -0.276 OA
ATOM     17  H   LIG d   1      -7.607  93.241 119.844  0.00  0.00     0.149 HD
ENDBRANCH   6  13
BRANCH   5  18
ATOM     18  N   LIG d   1      -7.153  94.534 116.377  0.00  0.00     0.381 N 
ATOM     19  H   LIG d   1      -7.899  94.999 116.855  0.00  0.00    -0.090 HD
ATOM     20  H   LIG d   1      -7.378  94.500 115.398  0.00  0.00    -0.090 HD
ATOM     21  H   LIG d   1      -6.301  95.033 116.512  0.00  0.00    -0.090 HD
ENDBRANCH   5  18
BRANCH   3  22
ATOM     22  C   LIG d   1      -5.900  90.046 115.272  0.00  0.00     0.382 C 
ATOM     23  O   LIG d   1      -6.875  89.845 114.508  0.00  0.00    -0.241 OA
ATOM     24  O   LIG d   1      -4.893  89.318 115.186  0.00  0.00    -0.241 OA
ENDBRANCH   3  22
TORSDOF 7
ENDMDL
MODEL 8
REMARK VINA RESULT:      -4.8     12.697     15.268
REMARK  7 active torsions:
REMARK  status: ('A' for Active; 'I' for Inactive)
REMARK    1  A    between atoms: C_2  and  C_3 
REMARK    2  A    between atoms: C_3  and  O_6 
REMARK    3  A    between atoms: C_3  and  C_4 
REMARK    4  A    between atoms: C_7  and  O_6 
REMARK    5  A    between atoms: C_9  and  C_10 
REMARK    6  A    between atoms: N_15  and  C_14 
REMARK    7  A    between atoms: N_20  and  C_19 
REMARK       I    between atoms: C_22  and  N_20 
ROOT
ATOM      1  C   LIG d   1      -3.925  91.018 117.676  0.00  0.00     0.161 C 
ATOM      2  C   LIG d   1      -4.862  90.272 116.942  0.00  0.00     0.016 C 
ATOM      3  C   LIG d   1      -6.084  90.805 116.472  0.00  0.00     0.038 C 
ATOM      4  C   LIG d   1      -6.386  92.171 116.575  0.00  0.00     0.028 C 
ATOM      5  C   LIG d   1      -5.698  92.856 117.751  0.00  0.00    -0.047 C 
ATOM      6  C   LIG d   1      -4.186  92.538 117.702  0.00  0.00     0.091 C 
ENDROOT
BRANCH   1   7
ATOM      7  O   LIG d   1      -2.595  90.746 117.189  0.00  0.00    -0.368 OA
BRANCH   7   8
ATOM      8  C   LIG d   1      -1.711  90.053 118.104  0.00  0.00     0.119 C 
BRANCH   8   9
ATOM      9  C   LIG d   1      -0.270  90.489 117.776  0.00  0.00     0.028 C 
ATOM     10  C   LIG d   1       0.562  90.766 119.039  0.00  0.00     0.006 C 
ENDBRANCH   8   9
BRANCH   8  11
ATOM     11  C   LIG d   1      -1.740  88.540 117.869  0.00  0.00     0.028 C 
ATOM     12  C   LIG d   1      -2.183  87.752 119.112  0.00  0.00     0.006 C 
ENDBRANCH   8  11
ENDBRANCH   7   8
ENDBRANCH   1   7
BRANCH   6  13
ATOM     13  N   LIG d   1      -3.451  93.101 118.865  0.00  0.00    -0.311 N 
ATOM     14  C   LIG d   1      -2.255  93.680 118.766  0.00  0.00     0.210 C 
ATOM     15  C   LIG d   1      -1.665  94.174 120.090  0.00  0.00     0.109 C 
ATOM     16  O   LIG d   1      -1.642  93.860 117.703  0.00  0.00    -0.276 OA
ATOM     17  H   LIG d   1      -3.889  93.025 119.762  0.00  0.00     0.149 HD
ENDBRANCH   6  13
BRANCH   5  18
ATOM     18  N   LIG d   1      -5.989  94.299 117.659  0.00  0.00     0.381 N 
ATOM     19  H   LIG d   1      -5.510  94.691 116.873  0.00  0.00    -0.090 HD
ATOM     20  H   LIG d   1      -5.654  94.752 118.491  0.00  0.00    -0.090 HD
ATOM     21  H   LIG d   1      -6.970  94.444 117.565  0.00  0.00    -0.090 HD
ENDBRANCH   5  18
BRANCH   3  22
ATOM     22  C   LIG d   1      -7.038  89.959 115.926  0.00  0.00     0.382 C 
ATOM     23  O   LIG d   1      -7.772  89.274 116.677  0.00  0.00    -0.241 OA
ATOM     24  O   LIG d   1      -7.143  89.840 114.690  0.00  0.00    -0.241 OA
ENDBRANCH   3  22
TORSDOF 7
ENDMDL
MODEL 9
REMARK VINA RESULT:      -4.8     14.254     17.394
REMARK  7 active torsions:
REMARK  status: ('A' for Active; 'I' for Inactive)
REMARK    1  A    between atoms: C_2  and  C_3 
REMARK    2  A    between atoms: C_3  and  O_6 
REMARK    3  A    between atoms: C_3  and  C_4 
REMARK    4  A    between atoms: C_7  and  O_6 
REMARK    5  A    between atoms: C_9  and  C_10 
REMARK    6  A    between atoms: N_15  and  C_14 
REMARK    7  A    between atoms: N_20  and  C_19 
REMARK       I    between atoms: C_22  and  N_20 
ROOT
ATOM      1  C   LIG d   1      -6.113  93.246 118.016  0.00  0.00     0.161 C 
ATOM      2  C   LIG d   1      -6.513  92.037 117.422  0.00  0.00     0.016 C 
ATOM      3  C   LIG d   1      -5.604  91.098 116.881  0.00  0.00     0.038 C 
ATOM      4  C   LIG d   1      -4.217  91.236 117.033  0.00  0.00     0.028 C 
ATOM      5  C   LIG d   1      -3.765  92.686 117.179  0.00  0.00    -0.047 C 
ATOM      6  C   LIG d   1      -4.599  93.362 118.290  0.00  0.00     0.091 C 
ENDROOT
BRANCH   1   7
ATOM      7  O   LIG d   1      -6.861  93.465 119.228  0.00  0.00    -0.368 OA
BRANCH   7   8
ATOM      8  C   LIG d   1      -7.353  94.812 119.439  0.00  0.00     0.119 C 
BRANCH   8   9
ATOM      9  C   LIG d   1      -8.459  94.738 120.510  0.00  0.00     0.028 C 
ATOM     10  C   LIG d   1      -9.860  94.980 119.924  0.00  0.00     0.006 C 
ENDBRANCH   8   9
BRANCH   8  11
ATOM     11  C   LIG d   1      -8.040  95.357 118.183  0.00  0.00     0.028 C 
ATOM     12  C   LIG d   1      -7.494  96.727 117.752  0.00  0.00     0.006 C 
ENDBRANCH   8  11
ENDBRANCH   7   8
ENDBRANCH   1   7
BRANCH   6  13
ATOM     13  N   LIG d   1      -4.279  94.806 118.440  0.00  0.00    -0.311 N 
ATOM     14  C   LIG d   1      -3.409  95.275 119.333  0.00  0.00     0.210 C 
ATOM     15  C   LIG d   1      -3.241  96.797 119.335  0.00  0.00     0.109 C 
ATOM     16  O   LIG d   1      -2.737  94.572 120.103  0.00  0.00    -0.276 OA
ATOM     17  H   LIG d   1      -4.756  95.444 117.835  0.00  0.00     0.149 HD
ENDBRANCH   6  13
BRANCH   5  18
ATOM     18  N   LIG d   1      -2.318  92.674 117.468  0.00  0.00     0.381 N 
ATOM     19  H   LIG d   1      -2.017  91.739 117.655  0.00  0.00    -0.090 HD
ATOM     20  H   LIG d   1      -2.146  93.231 118.287  0.00  0.00    -0.090 HD
ATOM     21  H   LIG d   1      -1.813  93.045 116.693  0.00  0.00    -0.090 HD
ENDBRANCH   5  18
BRANCH   3  22
ATOM     22  C   LIG d   1      -6.082  90.026 116.143  0.00  0.00     0.382 C 
ATOM     23  O   LIG d   1      -7.122  89.427 116.509  0.00  0.00    -0.241 OA
ATOM     24  O   LIG d   1      -5.462  89.622 115.141  0.00  0.00    -0.241 OA
ENDBRANCH   3  22
TORSDOF 7
ENDMDL
