MODEL 1
REMARK VINA RESULT:      -5.5      0.000      0.000
REMARK  7 active torsions:
REMARK  status: ('A' for Active; 'I' for Inactive)
REMARK    1  A    between atoms: C_2  and  C_3 
REMARK    2  A    between atoms: C_3  and  O_6 
REMARK    3  A    between atoms: C_3  and  C_4 
REMARK    4  A    between atoms: C_7  and  O_6 
REMARK    5  A    between atoms: C_9  and  C_10 
REMARK    6  A    between atoms: N_15  and  C_14 
REMARK    7  A    between atoms: N_20  and  C_19 
REMARK       I    between atoms: C_22  and  N_20 
ROOT
ATOM      1  C   LIG d   1      -6.665  93.347 117.876  0.00  0.00     0.161 C 
ATOM      2  C   LIG d   1      -7.182  92.304 117.090  0.00  0.00     0.016 C 
ATOM      3  C   LIG d   1      -6.383  91.279 116.533  0.00  0.00     0.038 C 
ATOM      4  C   LIG d   1      -5.023  91.143 116.851  0.00  0.00     0.028 C 
ATOM      5  C   LIG d   1      -4.356  92.460 117.233  0.00  0.00    -0.047 C 
ATOM      6  C   LIG d   1      -5.202  93.153 118.326  0.00  0.00     0.091 C 
ENDROOT
BRANCH   1   7
ATOM      7  O   LIG d   1      -7.516  93.566 119.019  0.00  0.00    -0.368 OA
BRANCH   7   8
ATOM      8  C   LIG d   1      -8.695  94.375 118.789  0.00  0.00     0.119 C 
BRANCH   8   9
ATOM      9  C   LIG d   1      -8.219  95.799 118.442  0.00  0.00     0.028 C 
ATOM     10  C   LIG d   1      -7.642  96.539 119.661  0.00  0.00     0.006 C 
ENDBRANCH   8   9
BRANCH   8  11
ATOM     11  C   LIG d   1      -9.525  94.526 120.068  0.00  0.00     0.028 C 
ATOM     12  C   LIG d   1      -9.125  93.520 121.159  0.00  0.00     0.006 C 
ENDBRANCH   8  11
ENDBRANCH   7   8
ENDBRANCH   1   7
BRANCH   6  13
ATOM     13  N   LIG d   1      -4.665  94.488 118.697  0.00  0.00    -0.311 N 
ATOM     14  C   LIG d   1      -4.332  94.824 119.942  0.00  0.00     0.210 C 
ATOM     15  C   LIG d   1      -3.817  96.258 120.109  0.00  0.00     0.109 C 
ATOM     16  O   LIG d   1      -4.384  94.062 120.919  0.00  0.00    -0.276 OA
ATOM     17  H   LIG d   1      -4.560  95.159 117.961  0.00  0.00     0.149 HD
ENDBRANCH   6  13
BRANCH   5  18
ATOM     18  N   LIG d   1      -2.982  92.153 117.673  0.00  0.00     0.381 N 
ATOM     19  H   LIG d   1      -2.660  92.863 118.299  0.00  0.00    -0.090 HD
ATOM     20  H   LIG d   1      -2.378  92.143 116.870  0.00  0.00    -0.090 HD
ATOM     21  H   LIG d   1      -2.959  91.266 118.126  0.00  0.00    -0.090 HD
ENDBRANCH   5  18
BRANCH   3  22
ATOM     22  C   LIG d   1      -6.935  90.400 115.614  0.00  0.00     0.382 C 
ATOM     23  O   LIG d   1      -8.150  90.097 115.687  0.00  0.00    -0.241 OA
ATOM     24  O   LIG d   1      -6.223  89.871 114.739  0.00  0.00    -0.241 OA
ENDBRANCH   3  22
TORSDOF 7
ENDMDL
MODEL 2
REMARK VINA RESULT:      -5.4      2.118      4.258
REMARK  7 active torsions:
REMARK  status: ('A' for Active; 'I' for Inactive)
REMARK    1  A    between atoms: C_2  and  C_3 
REMARK    2  A    between atoms: C_3  and  O_6 
REMARK    3  A    between atoms: C_3  and  C_4 
REMARK    4  A    between atoms: C_7  and  O_6 
REMARK    5  A    between atoms: C_9  and  C_10 
REMARK    6  A    between atoms: N_15  and  C_14 
REMARK    7  A    between atoms: N_20  and  C_19 
REMARK       I    between atoms: C_22  and  N_20 
ROOT
ATOM      1  C   LIG d   1      -5.099  92.601 118.032  0.00  0.00     0.161 C 
ATOM      2  C   LIG d   1      -5.400  91.640 117.053  0.00  0.00     0.016 C 
ATOM      3  C   LIG d   1      -6.627  91.601 116.352  0.00  0.00     0.038 C 
ATOM      4  C   LIG d   1      -7.585  92.618 116.476  0.00  0.00     0.028 C 
ATOM      5  C   LIG d   1      -7.539  93.332 117.823  0.00  0.00    -0.047 C 
ATOM      6  C   LIG d   1      -6.087  93.784 118.102  0.00  0.00     0.091 C 
ENDROOT
BRANCH   1   7
ATOM      7  O   LIG d   1      -3.753  93.082 117.848  0.00  0.00    -0.368 OA
BRANCH   7   8
ATOM      8  C   LIG d   1      -2.779  92.644 118.827  0.00  0.00     0.119 C 
BRANCH   8   9
ATOM      9  C   LIG d   1      -2.317  93.888 119.609  0.00  0.00     0.028 C 
ATOM     10  C   LIG d   1      -2.414  95.176 118.774  0.00  0.00     0.006 C 
ENDBRANCH   8   9
BRANCH   8  11
ATOM     11  C   LIG d   1      -1.518  92.097 118.152  0.00  0.00     0.028 C 
ATOM     12  C   LIG d   1      -1.702  90.670 117.612  0.00  0.00     0.006 C 
ENDBRANCH   8  11
ENDBRANCH   7   8
ENDBRANCH   1   7
BRANCH   6  13
ATOM     13  N   LIG d   1      -5.937  94.417 119.439  0.00  0.00    -0.311 N 
ATOM     14  C   LIG d   1      -6.030  95.730 119.643  0.00  0.00     0.210 C 
ATOM     15  C   LIG d   1      -5.823  96.175 121.094  0.00  0.00     0.109 C 
ATOM     16  O   LIG d   1      -6.295  96.565 118.765  0.00  0.00    -0.276 OA
ATOM     17  H   LIG d   1      -5.751  93.810 120.212  0.00  0.00     0.149 HD
ENDBRANCH   6  13
BRANCH   5  18
ATOM     18  N   LIG d   1      -8.493  94.455 117.766  0.00  0.00     0.381 N 
ATOM     19  H   LIG d   1      -9.119  94.328 116.995  0.00  0.00    -0.090 HD
ATOM     20  H   LIG d   1      -7.983  95.308 117.620  0.00  0.00    -0.090 HD
ATOM     21  H   LIG d   1      -9.009  94.508 118.616  0.00  0.00    -0.090 HD
ENDBRANCH   5  18
BRANCH   3  22
ATOM     22  C   LIG d   1      -6.923  90.513 115.544  0.00  0.00     0.382 C 
ATOM     23  O   LIG d   1      -8.095  90.069 115.495  0.00  0.00    -0.241 OA
ATOM     24  O   LIG d   1      -6.023  89.942 114.899  0.00  0.00    -0.241 OA
ENDBRANCH   3  22
TORSDOF 7
ENDMDL
MODEL 3
REMARK VINA RESULT:      -5.4      2.518      4.987
REMARK  7 active torsions:
REMARK  status: ('A' for Active; 'I' for Inactive)
REMARK    1  A    between atoms: C_2  and  C_3 
REMARK    2  A    between atoms: C_3  and  O_6 
REMARK    3  A    between atoms: C_3  and  C_4 
REMARK    4  A    between atoms: C_7  and  O_6 
REMARK    5  A    between atoms: C_9  and  C_10 
REMARK    6  A    between atoms: N_15  and  C_14 
REMARK    7  A    between atoms: N_20  and  C_19 
REMARK       I    between atoms: C_22  and  N_20 
ROOT
ATOM      1  C   LIG d   1      -4.330  91.611 117.787  0.00  0.00     0.161 C 
ATOM      2  C   LIG d   1      -5.102  90.869 116.878  0.00  0.00     0.016 C 
ATOM      3  C   LIG d   1      -6.339  91.317 116.359  0.00  0.00     0.038 C 
ATOM      4  C   LIG d   1      -6.817  92.613 116.600  0.00  0.00     0.028 C 
ATOM      5  C   LIG d   1      -6.321  93.208 117.914  0.00  0.00    -0.047 C 
ATOM      6  C   LIG d   1      -4.782  93.074 117.975  0.00  0.00     0.091 C 
ENDROOT
BRANCH   1   7
ATOM      7  O   LIG d   1      -2.942  91.561 117.405  0.00  0.00    -0.368 OA
BRANCH   7   8
ATOM      8  C   LIG d   1      -2.047  90.907 118.337  0.00  0.00     0.119 C 
BRANCH   8   9
ATOM      9  C   LIG d   1      -0.641  91.500 118.124  0.00  0.00     0.028 C 
ATOM     10  C   LIG d   1       0.201  90.675 117.136  0.00  0.00     0.006 C 
ENDBRANCH   8   9
BRANCH   8  11
ATOM     11  C   LIG d   1      -1.908  89.414 118.024  0.00  0.00     0.028 C 
ATOM     12  C   LIG d   1      -2.455  88.517 119.146  0.00  0.00     0.006 C 
ENDBRANCH   8  11
ENDBRANCH   7   8
ENDBRANCH   1   7
BRANCH   6  13
ATOM     13  N   LIG d   1      -4.223  93.556 119.265  0.00  0.00    -0.311 N 
ATOM     14  C   LIG d   1      -3.144  94.333 119.352  0.00  0.00     0.210 C 
ATOM     15  C   LIG d   1      -2.724  94.699 120.779  0.00  0.00     0.109 C 
ATOM     16  O   LIG d   1      -2.516  94.781 118.381  0.00  0.00    -0.276 OA
ATOM     17  H   LIG d   1      -4.690  93.265 120.102  0.00  0.00     0.149 HD
ENDBRANCH   6  13
BRANCH   5  18
ATOM     18  N   LIG d   1      -6.783  94.608 117.972  0.00  0.00     0.381 N 
ATOM     19  H   LIG d   1      -6.226  95.174 117.363  0.00  0.00    -0.090 HD
ATOM     20  H   LIG d   1      -6.670  94.949 118.910  0.00  0.00    -0.090 HD
ATOM     21  H   LIG d   1      -7.741  94.662 117.704  0.00  0.00    -0.090 HD
ENDBRANCH   5  18
BRANCH   3  22
ATOM     22  C   LIG d   1      -7.130  90.449 115.622  0.00  0.00     0.382 C 
ATOM     23  O   LIG d   1      -6.778  90.108 114.467  0.00  0.00    -0.241 OA
ATOM     24  O   LIG d   1      -8.212  90.037 116.080  0.00  0.00    -0.241 OA
ENDBRANCH   3  22
TORSDOF 7
ENDMDL
MODEL 4
REMARK VINA RESULT:      -4.6      2.357      4.840
REMARK  7 active torsions:
REMARK  status: ('A' for Active; 'I' for Inactive)
REMARK    1  A    between atoms: C_2  and  C_3 
REMARK    2  A    between atoms: C_3  and  O_6 
REMARK    3  A    between atoms: C_3  and  C_4 
REMARK    4  A    between atoms: C_7  and  O_6 
REMARK    5  A    between atoms: C_9  and  C_10 
REMARK    6  A    between atoms: N_15  and  C_14 
REMARK    7  A    between atoms: N_20  and  C_19 
REMARK       I    between atoms: C_22  and  N_20 
ROOT
ATOM      1  C   LIG d   1      -5.522  93.581 119.862  0.00  0.00     0.161 C 
ATOM      2  C   LIG d   1      -6.913  93.460 119.711  0.00  0.00     0.016 C 
ATOM      3  C   LIG d   1      -7.741  94.512 119.255  0.00  0.00     0.038 C 
ATOM      4  C   LIG d   1      -7.210  95.718 118.774  0.00  0.00     0.028 C 
ATOM      5  C   LIG d   1      -5.855  96.068 119.380  0.00  0.00    -0.047 C 
ATOM      6  C   LIG d   1      -4.911  94.852 119.236  0.00  0.00     0.091 C 
ENDROOT
BRANCH   1   7
ATOM      7  O   LIG d   1      -4.870  92.405 119.344  0.00  0.00    -0.368 OA
BRANCH   7   8
ATOM      8  C   LIG d   1      -4.537  92.430 117.934  0.00  0.00     0.119 C 
BRANCH   8   9
ATOM      9  C   LIG d   1      -5.534  91.507 117.206  0.00  0.00     0.028 C 
ATOM     10  C   LIG d   1      -6.526  92.290 116.330  0.00  0.00     0.006 C 
ENDBRANCH   8   9
BRANCH   8  11
ATOM     11  C   LIG d   1      -3.156  91.818 117.677  0.00  0.00     0.028 C 
ATOM     12  C   LIG d   1      -3.079  90.335 118.071  0.00  0.00     0.006 C 
ENDBRANCH   8  11
ENDBRANCH   7   8
ENDBRANCH   1   7
BRANCH   6  13
ATOM     13  N   LIG d   1      -3.591  95.081 119.879  0.00  0.00    -0.311 N 
ATOM     14  C   LIG d   1      -2.458  95.228 119.194  0.00  0.00     0.210 C 
ATOM     15  C   LIG d   1      -1.206  95.433 120.053  0.00  0.00     0.109 C 
ATOM     16  O   LIG d   1      -2.376  95.240 117.957  0.00  0.00    -0.276 OA
ATOM     17  H   LIG d   1      -3.571  95.116 120.879  0.00  0.00     0.149 HD
ENDBRANCH   6  13
BRANCH   5  18
ATOM     18  N   LIG d   1      -5.356  97.272 118.690  0.00  0.00     0.381 N 
ATOM     19  H   LIG d   1      -6.060  97.625 118.072  0.00  0.00    -0.090 HD
ATOM     20  H   LIG d   1      -4.551  97.023 118.142  0.00  0.00    -0.090 HD
ATOM     21  H   LIG d   1      -5.109  97.970 119.357  0.00  0.00    -0.090 HD
ENDBRANCH   5  18
BRANCH   3  22
ATOM     22  C   LIG d   1      -9.120  94.378 119.317  0.00  0.00     0.382 C 
ATOM     23  O   LIG d   1      -9.628  93.415 119.940  0.00  0.00    -0.241 OA
ATOM     24  O   LIG d   1      -9.860  95.181 118.719  0.00  0.00    -0.241 OA
ENDBRANCH   3  22
TORSDOF 7
ENDMDL
MODEL 5
REMARK VINA RESULT:      -4.6      2.427      6.547
REMARK  7 active torsions:
REMARK  status: ('A' for Active; 'I' for Inactive)
REMARK    1  A    between atoms: C_2  and  C_3 
REMARK    2  A    between atoms: C_3  and  O_6 
REMARK    3  A    between atoms: C_3  and  C_4 
REMARK    4  A    between atoms: C_7  and  O_6 
REMARK    5  A    between atoms: C_9  and  C_10 
REMARK    6  A    between atoms: N_15  and  C_14 
REMARK    7  A    between atoms: N_20  and  C_19 
REMARK       I    between atoms: C_22  and  N_20 
ROOT
ATOM      1  C   LIG d   1      -4.524  92.818 118.295  0.00  0.00     0.161 C 
ATOM      2  C   LIG d   1      -4.358  93.784 119.302  0.00  0.00     0.016 C 
ATOM      3  C   LIG d   1      -5.371  94.696 119.679  0.00  0.00     0.038 C 
ATOM      4  C   LIG d   1      -6.677  94.604 119.175  0.00  0.00     0.028 C 
ATOM      5  C   LIG d   1      -6.749  93.969 117.790  0.00  0.00    -0.047 C 
ATOM      6  C   LIG d   1      -5.977  92.630 117.812  0.00  0.00     0.091 C 
ENDROOT
BRANCH   1   7
ATOM      7  O   LIG d   1      -3.974  91.559 118.731  0.00  0.00    -0.368 OA
BRANCH   7   8
ATOM      8  C   LIG d   1      -2.802  91.094 118.017  0.00  0.00     0.119 C 
BRANCH   8   9
ATOM      9  C   LIG d   1      -2.719  89.567 118.208  0.00  0.00     0.028 C 
ATOM     10  C   LIG d   1      -1.319  89.012 117.894  0.00  0.00     0.006 C 
ENDBRANCH   8   9
BRANCH   8  11
ATOM     11  C   LIG d   1      -1.516  91.651 118.636  0.00  0.00     0.028 C 
ATOM     12  C   LIG d   1      -0.865  92.745 117.775  0.00  0.00     0.006 C 
ENDBRANCH   8  11
ENDBRANCH   7   8
ENDBRANCH   1   7
BRANCH   6  13
ATOM     13  N   LIG d   1      -5.927  91.983 116.475  0.00  0.00    -0.311 N 
ATOM     14  C   LIG d   1      -6.783  91.041 116.083  0.00  0.00     0.210 C 
ATOM     15  C   LIG d   1      -6.541  90.493 114.674  0.00  0.00     0.109 C 
ATOM     16  O   LIG d   1      -7.740  90.631 116.757  0.00  0.00    -0.276 OA
ATOM     17  H   LIG d   1      -5.200  92.278 115.853  0.00  0.00     0.149 HD
ENDBRANCH   6  13
BRANCH   5  18
ATOM     18  N   LIG d   1      -8.174  93.810 117.447  0.00  0.00     0.381 N 
ATOM     19  H   LIG d   1      -8.604  94.709 117.360  0.00  0.00    -0.090 HD
ATOM     20  H   LIG d   1      -8.634  93.310 118.188  0.00  0.00    -0.090 HD
ATOM     21  H   LIG d   1      -8.265  93.306 116.592  0.00  0.00    -0.090 HD
ENDBRANCH   5  18
BRANCH   3  22
ATOM     22  C   LIG d   1      -5.069  95.740 120.540  0.00  0.00     0.382 C 
ATOM     23  O   LIG d   1      -5.916  96.640 120.756  0.00  0.00    -0.241 OA
ATOM     24  O   LIG d   1      -3.944  95.817 121.069  0.00  0.00    -0.241 OA
ENDBRANCH   3  22
TORSDOF 7
ENDMDL
MODEL 6
REMARK VINA RESULT:      -4.6      2.382      4.979
REMARK  7 active torsions:
REMARK  status: ('A' for Active; 'I' for Inactive)
REMARK    1  A    between atoms: C_2  and  C_3 
REMARK    2  A    between atoms: C_3  and  O_6 
REMARK    3  A    between atoms: C_3  and  C_4 
REMARK    4  A    between atoms: C_7  and  O_6 
REMARK    5  A    between atoms: C_9  and  C_10 
REMARK    6  A    between atoms: N_15  and  C_14 
REMARK    7  A    between atoms: N_20  and  C_19 
REMARK       I    between atoms: C_22  and  N_20 
ROOT
ATOM      1  C   LIG d   1      -4.596  93.424 118.751  0.00  0.00     0.161 C 
ATOM      2  C   LIG d   1      -5.795  94.151 118.845  0.00  0.00     0.016 C 
ATOM      3  C   LIG d   1      -6.945  93.858 118.077  0.00  0.00     0.038 C 
ATOM      4  C   LIG d   1      -7.024  92.716 117.267  0.00  0.00     0.028 C 
ATOM      5  C   LIG d   1      -5.668  92.239 116.757  0.00  0.00    -0.047 C 
ATOM      6  C   LIG d   1      -4.700  92.106 117.955  0.00  0.00     0.091 C 
ENDROOT
BRANCH   1   7
ATOM      7  O   LIG d   1      -4.074  93.172 120.071  0.00  0.00    -0.368 OA
BRANCH   7   8
ATOM      8  C   LIG d   1      -2.867  93.892 120.426  0.00  0.00     0.119 C 
BRANCH   8   9
ATOM      9  C   LIG d   1      -2.491  94.786 119.229  0.00  0.00     0.028 C 
ATOM     10  C   LIG d   1      -1.980  96.169 119.666  0.00  0.00     0.006 C 
ENDBRANCH   8   9
BRANCH   8  11
ATOM     11  C   LIG d   1      -1.683  92.938 120.608  0.00  0.00     0.028 C 
ATOM     12  C   LIG d   1      -2.076  91.625 121.303  0.00  0.00     0.006 C 
ENDBRANCH   8  11
ENDBRANCH   7   8
ENDBRANCH   1   7
BRANCH   6  13
ATOM     13  N   LIG d   1      -3.326  91.726 117.535  0.00  0.00    -0.311 N 
ATOM     14  C   LIG d   1      -2.747  90.576 117.876  0.00  0.00     0.210 C 
ATOM     15  C   LIG d   1      -1.319  90.391 117.353  0.00  0.00     0.109 C 
ATOM     16  O   LIG d   1      -3.293  89.677 118.534  0.00  0.00    -0.276 OA
ATOM     17  H   LIG d   1      -2.823  92.383 116.972  0.00  0.00     0.149 HD
ENDBRANCH   6  13
BRANCH   5  18
ATOM     18  N   LIG d   1      -5.882  90.966 116.043  0.00  0.00     0.381 N 
ATOM     19  H   LIG d   1      -5.563  90.204 116.607  0.00  0.00    -0.090 HD
ATOM     20  H   LIG d   1      -5.346  90.976 115.193  0.00  0.00    -0.090 HD
ATOM     21  H   LIG d   1      -6.849  90.852 115.833  0.00  0.00    -0.090 HD
ENDBRANCH   5  18
BRANCH   3  22
ATOM     22  C   LIG d   1      -8.018  94.736 118.084  0.00  0.00     0.382 C 
ATOM     23  O   LIG d   1      -7.819  95.968 118.208  0.00  0.00    -0.241 OA
ATOM     24  O   LIG d   1      -9.185  94.307 118.012  0.00  0.00    -0.241 OA
ENDBRANCH   3  22
TORSDOF 7
ENDMDL
MODEL 7
REMARK VINA RESULT:      -4.6     28.552     31.313
REMARK  7 active torsions:
REMARK  status: ('A' for Active; 'I' for Inactive)
REMARK    1  A    between atoms: C_2  and  C_3 
REMARK    2  A    between atoms: C_3  and  O_6 
REMARK    3  A    between atoms: C_3  and  C_4 
REMARK    4  A    between atoms: C_7  and  O_6 
REMARK    5  A    between atoms: C_9  and  C_10 
REMARK    6  A    between atoms: N_15  and  C_14 
REMARK    7  A    between atoms: N_20  and  C_19 
REMARK       I    between atoms: C_22  and  N_20 
ROOT
ATOM      1  C   LIG d   1     -16.346  63.479 116.696  0.00  0.00     0.161 C 
ATOM      2  C   LIG d   1     -17.242  63.097 115.683  0.00  0.00     0.016 C 
ATOM      3  C   LIG d   1     -17.900  64.019 114.838  0.00  0.00     0.038 C 
ATOM      4  C   LIG d   1     -17.590  65.387 114.849  0.00  0.00     0.028 C 
ATOM      5  C   LIG d   1     -17.066  65.879 116.194  0.00  0.00    -0.047 C 
ATOM      6  C   LIG d   1     -15.910  64.958 116.649  0.00  0.00     0.091 C 
ENDROOT
BRANCH   1   7
ATOM      7  O   LIG d   1     -15.191  62.616 116.678  0.00  0.00    -0.368 OA
BRANCH   7   8
ATOM      8  C   LIG d   1     -15.145  61.592 117.701  0.00  0.00     0.119 C 
BRANCH   8   9
ATOM      9  C   LIG d   1     -15.845  60.341 117.136  0.00  0.00     0.028 C 
ATOM     10  C   LIG d   1     -15.605  59.092 118.001  0.00  0.00     0.006 C 
ENDBRANCH   8   9
BRANCH   8  11
ATOM     11  C   LIG d   1     -15.965  61.995 118.930  0.00  0.00     0.028 C 
ATOM     12  C   LIG d   1     -15.087  62.390 120.128  0.00  0.00     0.006 C 
ENDBRANCH   8  11
ENDBRANCH   7   8
ENDBRANCH   1   7
BRANCH   6  13
ATOM     13  N   LIG d   1     -15.396  65.318 117.996  0.00  0.00    -0.311 N 
ATOM     14  C   LIG d   1     -14.305  66.057 118.191  0.00  0.00     0.210 C 
ATOM     15  C   LIG d   1     -13.938  66.294 119.659  0.00  0.00     0.109 C 
ATOM     16  O   LIG d   1     -13.625  66.566 117.287  0.00  0.00    -0.276 OA
ATOM     17  H   LIG d   1     -15.905  64.973 118.786  0.00  0.00     0.149 HD
ENDBRANCH   6  13
BRANCH   5  18
ATOM     18  N   LIG d   1     -16.653  67.285 116.025  0.00  0.00     0.381 N 
ATOM     19  H   LIG d   1     -17.433  67.832 115.721  0.00  0.00    -0.090 HD
ATOM     20  H   LIG d   1     -15.940  67.331 115.319  0.00  0.00    -0.090 HD
ATOM     21  H   LIG d   1     -16.303  67.643 116.886  0.00  0.00    -0.090 HD
ENDBRANCH   5  18
BRANCH   3  22
ATOM     22  C   LIG d   1     -18.911  63.580 113.997  0.00  0.00     0.382 C 
ATOM     23  O   LIG d   1     -18.858  62.429 113.500  0.00  0.00    -0.241 OA
ATOM     24  O   LIG d   1     -19.853  64.336 113.692  0.00  0.00    -0.241 OA
ENDBRANCH   3  22
TORSDOF 7
ENDMDL
MODEL 8
REMARK VINA RESULT:      -4.4     29.066     32.055
REMARK  7 active torsions:
REMARK  status: ('A' for Active; 'I' for Inactive)
REMARK    1  A    between atoms: C_2  and  C_3 
REMARK    2  A    between atoms: C_3  and  O_6 
REMARK    3  A    between atoms: C_3  and  C_4 
REMARK    4  A    between atoms: C_7  and  O_6 
REMARK    5  A    between atoms: C_9  and  C_10 
REMARK    6  A    between atoms: N_15  and  C_14 
REMARK    7  A    between atoms: N_20  and  C_19 
REMARK       I    between atoms: C_22  and  N_20 
ROOT
ATOM      1  C   LIG d   1     -16.174  63.277 116.541  0.00  0.00     0.161 C 
ATOM      2  C   LIG d   1     -15.503  64.357 117.139  0.00  0.00     0.016 C 
ATOM      3  C   LIG d   1     -15.671  65.700 116.730  0.00  0.00     0.038 C 
ATOM      4  C   LIG d   1     -16.643  66.072 115.789  0.00  0.00     0.028 C 
ATOM      5  C   LIG d   1     -16.986  64.962 114.801  0.00  0.00    -0.047 C 
ATOM      6  C   LIG d   1     -17.321  63.675 115.589  0.00  0.00     0.091 C 
ENDROOT
BRANCH   1   7
ATOM      7  O   LIG d   1     -16.658  62.379 117.560  0.00  0.00    -0.368 OA
BRANCH   7   8
ATOM      8  C   LIG d   1     -15.740  61.340 117.981  0.00  0.00     0.119 C 
BRANCH   8   9
ATOM      9  C   LIG d   1     -16.162  60.036 117.276  0.00  0.00     0.028 C 
ATOM     10  C   LIG d   1     -15.625  58.783 117.988  0.00  0.00     0.006 C 
ENDBRANCH   8   9
BRANCH   8  11
ATOM     11  C   LIG d   1     -15.874  61.052 119.479  0.00  0.00     0.028 C 
ATOM     12  C   LIG d   1     -15.299  62.176 120.355  0.00  0.00     0.006 C 
ENDBRANCH   8  11
ENDBRANCH   7   8
ENDBRANCH   1   7
BRANCH   6  13
ATOM     13  N   LIG d   1     -17.586  62.517 114.696  0.00  0.00    -0.311 N 
ATOM     14  C   LIG d   1     -18.808  62.155 114.309  0.00  0.00     0.210 C 
ATOM     15  C   LIG d   1     -18.860  60.919 113.404  0.00  0.00     0.109 C 
ATOM     16  O   LIG d   1     -19.851  62.758 114.603  0.00  0.00    -0.276 OA
ATOM     17  H   LIG d   1     -16.794  61.990 114.384  0.00  0.00     0.149 HD
ENDBRANCH   6  13
BRANCH   5  18
ATOM     18  N   LIG d   1     -18.107  65.438 113.968  0.00  0.00     0.381 N 
ATOM     19  H   LIG d   1     -18.854  65.755 114.553  0.00  0.00    -0.090 HD
ATOM     20  H   LIG d   1     -18.446  64.673 113.411  0.00  0.00    -0.090 HD
ATOM     21  H   LIG d   1     -17.801  66.179 113.376  0.00  0.00    -0.090 HD
ENDBRANCH   5  18
BRANCH   3  22
ATOM     22  C   LIG d   1     -14.834  66.683 117.235  0.00  0.00     0.382 C 
ATOM     23  O   LIG d   1     -15.316  67.763 117.654  0.00  0.00    -0.241 OA
ATOM     24  O   LIG d   1     -13.599  66.521 117.237  0.00  0.00    -0.241 OA
ENDBRANCH   3  22
TORSDOF 7
ENDMDL
MODEL 9
REMARK VINA RESULT:      -4.4     27.633     30.115
REMARK  7 active torsions:
REMARK  status: ('A' for Active; 'I' for Inactive)
REMARK    1  A    between atoms: C_2  and  C_3 
REMARK    2  A    between atoms: C_3  and  O_6 
REMARK    3  A    between atoms: C_3  and  C_4 
REMARK    4  A    between atoms: C_7  and  O_6 
REMARK    5  A    between atoms: C_9  and  C_10 
REMARK    6  A    between atoms: N_15  and  C_14 
REMARK    7  A    between atoms: N_20  and  C_19 
REMARK       I    between atoms: C_22  and  N_20 
ROOT
ATOM      1  C   LIG d   1     -15.658  64.347 117.715  0.00  0.00     0.161 C 
ATOM      2  C   LIG d   1     -15.929  63.814 116.444  0.00  0.00     0.016 C 
ATOM      3  C   LIG d   1     -16.172  64.611 115.302  0.00  0.00     0.038 C 
ATOM      4  C   LIG d   1     -16.009  66.004 115.321  0.00  0.00     0.028 C 
ATOM      5  C   LIG d   1     -16.230  66.620 116.698  0.00  0.00    -0.047 C 
ATOM      6  C   LIG d   1     -15.367  65.863 117.732  0.00  0.00     0.091 C 
ENDROOT
BRANCH   1   7
ATOM      7  O   LIG d   1     -14.574  63.622 118.328  0.00  0.00    -0.368 OA
BRANCH   7   8
ATOM      8  C   LIG d   1     -14.933  62.745 119.424  0.00  0.00     0.119 C 
BRANCH   8   9
ATOM      9  C   LIG d   1     -16.471  62.697 119.494  0.00  0.00     0.028 C 
ATOM     10  C   LIG d   1     -16.999  61.302 119.871  0.00  0.00     0.006 C 
ENDBRANCH   8   9
BRANCH   8  11
ATOM     11  C   LIG d   1     -14.484  63.322 120.770  0.00  0.00     0.028 C 
ATOM     12  C   LIG d   1     -12.955  63.416 120.898  0.00  0.00     0.006 C 
ENDBRANCH   8  11
ENDBRANCH   7   8
ENDBRANCH   1   7
BRANCH   6  13
ATOM     13  N   LIG d   1     -15.587  66.348 119.120  0.00  0.00    -0.311 N 
ATOM     14  C   LIG d   1     -14.609  66.797 119.903  0.00  0.00     0.210 C 
ATOM     15  C   LIG d   1     -15.050  67.230 121.305  0.00  0.00     0.109 C 
ATOM     16  O   LIG d   1     -13.422  66.908 119.560  0.00  0.00    -0.276 OA
ATOM     17  H   LIG d   1     -16.526  66.322 119.468  0.00  0.00     0.149 HD
ENDBRANCH   6  13
BRANCH   5  18
ATOM     18  N   LIG d   1     -15.895  68.054 116.604  0.00  0.00     0.381 N 
ATOM     19  H   LIG d   1     -16.712  68.578 116.361  0.00  0.00    -0.090 HD
ATOM     20  H   LIG d   1     -15.211  68.181 115.878  0.00  0.00    -0.090 HD
ATOM     21  H   LIG d   1     -15.531  68.377 117.473  0.00  0.00    -0.090 HD
ENDBRANCH   5  18
BRANCH   3  22
ATOM     22  C   LIG d   1     -16.621  64.016 114.132  0.00  0.00     0.382 C 
ATOM     23  O   LIG d   1     -17.011  62.824 114.145  0.00  0.00    -0.241 OA
ATOM     24  O   LIG d   1     -16.598  64.643 113.056  0.00  0.00    -0.241 OA
ENDBRANCH   3  22
TORSDOF 7
ENDMDL
