MODEL 1
REMARK VINA RESULT:      -5.7      0.000      0.000
REMARK  7 active torsions:
REMARK  status: ('A' for Active; 'I' for Inactive)
REMARK    1  A    between atoms: C_2  and  C_3 
REMARK    2  A    between atoms: C_3  and  O_6 
REMARK    3  A    between atoms: C_3  and  C_4 
REMARK    4  A    between atoms: C_7  and  O_6 
REMARK    5  A    between atoms: C_9  and  C_10 
REMARK    6  A    between atoms: N_15  and  C_14 
REMARK    7  A    between atoms: N_20  and  C_19 
REMARK       I    between atoms: C_22  and  N_20 
ROOT
ATOM      1  C   LIG d   1      -7.322  76.787 117.555  0.00  0.00     0.161 C 
ATOM      2  C   LIG d   1      -8.482  77.521 117.855  0.00  0.00     0.016 C 
ATOM      3  C   LIG d   1      -8.515  78.933 117.917  0.00  0.00     0.038 C 
ATOM      4  C   LIG d   1      -7.419  79.718 117.532  0.00  0.00     0.028 C 
ATOM      5  C   LIG d   1      -6.078  79.013 117.708  0.00  0.00    -0.047 C 
ATOM      6  C   LIG d   1      -6.144  77.629 117.023  0.00  0.00     0.091 C 
ENDROOT
BRANCH   1   7
ATOM      7  O   LIG d   1      -7.640  75.729 116.629  0.00  0.00    -0.368 OA
BRANCH   7   8
ATOM      8  C   LIG d   1      -7.817  74.411 117.204  0.00  0.00     0.119 C 
BRANCH   8   9
ATOM      9  C   LIG d   1      -6.797  73.471 116.531  0.00  0.00     0.028 C 
ATOM     10  C   LIG d   1      -6.173  74.091 115.269  0.00  0.00     0.006 C 
ENDBRANCH   8   9
BRANCH   8  11
ATOM     11  C   LIG d   1      -9.192  73.831 116.858  0.00  0.00     0.028 C 
ATOM     12  C   LIG d   1      -9.179  72.300 116.736  0.00  0.00     0.006 C 
ENDBRANCH   8  11
ENDBRANCH   7   8
ENDBRANCH   1   7
BRANCH   6  13
ATOM     13  N   LIG d   1      -4.901  76.839 117.220  0.00  0.00    -0.311 N 
ATOM     14  C   LIG d   1      -3.902  76.811 116.339  0.00  0.00     0.210 C 
ATOM     15  C   LIG d   1      -2.722  75.916 116.729  0.00  0.00     0.109 C 
ATOM     16  O   LIG d   1      -3.868  77.468 115.288  0.00  0.00    -0.276 OA
ATOM     17  H   LIG d   1      -4.832  76.300 118.061  0.00  0.00     0.149 HD
ENDBRANCH   6  13
BRANCH   5  18
ATOM     18  N   LIG d   1      -5.036  79.890 117.141  0.00  0.00     0.381 N 
ATOM     19  H   LIG d   1      -4.130  79.527 117.362  0.00  0.00    -0.090 HD
ATOM     20  H   LIG d   1      -5.119  80.802 117.553  0.00  0.00    -0.090 HD
ATOM     21  H   LIG d   1      -5.144  79.953 116.152  0.00  0.00    -0.090 HD
ENDBRANCH   5  18
BRANCH   3  22
ATOM     22  C   LIG d   1      -9.644  79.573 118.407  0.00  0.00     0.382 C 
ATOM     23  O   LIG d   1     -10.137  79.221 119.506  0.00  0.00    -0.241 OA
ATOM     24  O   LIG d   1     -10.201  80.467 117.743  0.00  0.00    -0.241 OA
ENDBRANCH   3  22
TORSDOF 7
ENDMDL
MODEL 2
REMARK VINA RESULT:      -5.4      1.943      2.908
REMARK  7 active torsions:
REMARK  status: ('A' for Active; 'I' for Inactive)
REMARK    1  A    between atoms: C_2  and  C_3 
REMARK    2  A    between atoms: C_3  and  O_6 
REMARK    3  A    between atoms: C_3  and  C_4 
REMARK    4  A    between atoms: C_7  and  O_6 
REMARK    5  A    between atoms: C_9  and  C_10 
REMARK    6  A    between atoms: N_15  and  C_14 
REMARK    7  A    between atoms: N_20  and  C_19 
REMARK       I    between atoms: C_22  and  N_20 
ROOT
ATOM      1  C   LIG d   1      -5.603  75.104 117.888  0.00  0.00     0.161 C 
ATOM      2  C   LIG d   1      -6.820  75.790 117.748  0.00  0.00     0.016 C 
ATOM      3  C   LIG d   1      -6.911  77.195 117.615  0.00  0.00     0.038 C 
ATOM      4  C   LIG d   1      -5.772  78.000 117.460  0.00  0.00     0.028 C 
ATOM      5  C   LIG d   1      -4.521  77.409 118.101  0.00  0.00    -0.047 C 
ATOM      6  C   LIG d   1      -4.345  75.953 117.610  0.00  0.00     0.091 C 
ENDROOT
BRANCH   1   7
ATOM      7  O   LIG d   1      -5.606  73.927 117.055  0.00  0.00    -0.368 OA
BRANCH   7   8
ATOM      8  C   LIG d   1      -6.437  73.989 115.869  0.00  0.00     0.119 C 
BRANCH   8   9
ATOM      9  C   LIG d   1      -7.085  72.603 115.686  0.00  0.00     0.028 C 
ATOM     10  C   LIG d   1      -8.501  72.533 116.284  0.00  0.00     0.006 C 
ENDBRANCH   8   9
BRANCH   8  11
ATOM     11  C   LIG d   1      -5.595  74.212 114.610  0.00  0.00     0.028 C 
ATOM     12  C   LIG d   1      -5.553  75.686 114.175  0.00  0.00     0.006 C 
ENDBRANCH   8  11
ENDBRANCH   7   8
ENDBRANCH   1   7
BRANCH   6  13
ATOM     13  N   LIG d   1      -3.191  75.273 118.254  0.00  0.00    -0.311 N 
ATOM     14  C   LIG d   1      -2.223  74.667 117.570  0.00  0.00     0.210 C 
ATOM     15  C   LIG d   1      -1.138  74.010 118.429  0.00  0.00     0.109 C 
ATOM     16  O   LIG d   1      -2.143  74.637 116.333  0.00  0.00    -0.276 OA
ATOM     17  H   LIG d   1      -3.161  75.276 119.255  0.00  0.00     0.149 HD
ENDBRANCH   6  13
BRANCH   5  18
ATOM     18  N   LIG d   1      -3.384  78.280 117.747  0.00  0.00     0.381 N 
ATOM     19  H   LIG d   1      -3.174  78.889 118.512  0.00  0.00    -0.090 HD
ATOM     20  H   LIG d   1      -3.641  78.843 116.956  0.00  0.00    -0.090 HD
ATOM     21  H   LIG d   1      -2.587  77.726 117.525  0.00  0.00    -0.090 HD
ENDBRANCH   5  18
BRANCH   3  22
ATOM     22  C   LIG d   1      -8.150  77.813 117.676  0.00  0.00     0.382 C 
ATOM     23  O   LIG d   1      -9.192  77.151 117.448  0.00  0.00    -0.241 OA
ATOM     24  O   LIG d   1      -8.238  79.033 117.911  0.00  0.00    -0.241 OA
ENDBRANCH   3  22
TORSDOF 7
ENDMDL
MODEL 3
REMARK VINA RESULT:      -5.2      1.877      2.487
REMARK  7 active torsions:
REMARK  status: ('A' for Active; 'I' for Inactive)
REMARK    1  A    between atoms: C_2  and  C_3 
REMARK    2  A    between atoms: C_3  and  O_6 
REMARK    3  A    between atoms: C_3  and  C_4 
REMARK    4  A    between atoms: C_7  and  O_6 
REMARK    5  A    between atoms: C_9  and  C_10 
REMARK    6  A    between atoms: N_15  and  C_14 
REMARK    7  A    between atoms: N_20  and  C_19 
REMARK       I    between atoms: C_22  and  N_20 
ROOT
ATOM      1  C   LIG d   1      -6.355  78.008 117.298  0.00  0.00     0.161 C 
ATOM      2  C   LIG d   1      -7.712  77.860 117.633  0.00  0.00     0.016 C 
ATOM      3  C   LIG d   1      -8.538  78.938 118.026  0.00  0.00     0.038 C 
ATOM      4  C   LIG d   1      -8.100  80.269 117.964  0.00  0.00     0.028 C 
ATOM      5  C   LIG d   1      -6.590  80.418 118.116  0.00  0.00    -0.047 C 
ATOM      6  C   LIG d   1      -5.889  79.468 117.118  0.00  0.00     0.091 C 
ENDROOT
BRANCH   1   7
ATOM      7  O   LIG d   1      -6.056  77.237 116.118  0.00  0.00    -0.368 OA
BRANCH   7   8
ATOM      8  C   LIG d   1      -5.415  75.957 116.338  0.00  0.00     0.119 C 
BRANCH   8   9
ATOM      9  C   LIG d   1      -4.585  75.633 115.080  0.00  0.00     0.028 C 
ATOM     10  C   LIG d   1      -5.319  74.677 114.124  0.00  0.00     0.006 C 
ENDBRANCH   8   9
BRANCH   8  11
ATOM     11  C   LIG d   1      -6.445  74.829 116.447  0.00  0.00     0.028 C 
ATOM     12  C   LIG d   1      -6.548  74.251 117.867  0.00  0.00     0.006 C 
ENDBRANCH   8  11
ENDBRANCH   7   8
ENDBRANCH   1   7
BRANCH   6  13
ATOM     13  N   LIG d   1      -4.410  79.488 117.259  0.00  0.00    -0.311 N 
ATOM     14  C   LIG d   1      -3.614  80.271 116.532  0.00  0.00     0.210 C 
ATOM     15  C   LIG d   1      -2.118  80.121 116.823  0.00  0.00     0.109 C 
ATOM     16  O   LIG d   1      -4.008  81.097 115.695  0.00  0.00    -0.276 OA
ATOM     17  H   LIG d   1      -4.008  78.871 117.937  0.00  0.00     0.149 HD
ENDBRANCH   6  13
BRANCH   5  18
ATOM     18  N   LIG d   1      -6.257  81.837 117.895  0.00  0.00     0.381 N 
ATOM     19  H   LIG d   1      -6.938  82.255 117.293  0.00  0.00    -0.090 HD
ATOM     20  H   LIG d   1      -5.360  81.895 117.445  0.00  0.00    -0.090 HD
ATOM     21  H   LIG d   1      -6.231  82.321 118.766  0.00  0.00    -0.090 HD
ENDBRANCH   5  18
BRANCH   3  22
ATOM     22  C   LIG d   1      -9.807  78.685 118.524  0.00  0.00     0.382 C 
ATOM     23  O   LIG d   1     -10.240  79.343 119.501  0.00  0.00    -0.241 OA
ATOM     24  O   LIG d   1     -10.507  77.776 118.038  0.00  0.00    -0.241 OA
ENDBRANCH   3  22
TORSDOF 7
ENDMDL
MODEL 4
REMARK VINA RESULT:      -5.2     13.311     15.684
REMARK  7 active torsions:
REMARK  status: ('A' for Active; 'I' for Inactive)
REMARK    1  A    between atoms: C_2  and  C_3 
REMARK    2  A    between atoms: C_3  and  O_6 
REMARK    3  A    between atoms: C_3  and  C_4 
REMARK    4  A    between atoms: C_7  and  O_6 
REMARK    5  A    between atoms: C_9  and  C_10 
REMARK    6  A    between atoms: N_15  and  C_14 
REMARK    7  A    between atoms: N_20  and  C_19 
REMARK       I    between atoms: C_22  and  N_20 
ROOT
ATOM      1  C   LIG d   1      -5.302  91.815 118.757  0.00  0.00     0.161 C 
ATOM      2  C   LIG d   1      -6.458  91.323 118.128  0.00  0.00     0.016 C 
ATOM      3  C   LIG d   1      -6.426  90.440 117.024  0.00  0.00     0.038 C 
ATOM      4  C   LIG d   1      -5.230  89.867 116.567  0.00  0.00     0.028 C 
ATOM      5  C   LIG d   1      -4.001  90.725 116.848  0.00  0.00    -0.047 C 
ATOM      6  C   LIG d   1      -3.992  91.114 118.344  0.00  0.00     0.091 C 
ENDROOT
BRANCH   1   7
ATOM      7  O   LIG d   1      -5.467  91.766 120.188  0.00  0.00    -0.368 OA
BRANCH   7   8
ATOM      8  C   LIG d   1      -5.393  93.035 120.883  0.00  0.00     0.119 C 
BRANCH   8   9
ATOM      9  C   LIG d   1      -6.826  93.416 121.305  0.00  0.00     0.028 C 
ATOM     10  C   LIG d   1      -7.514  94.334 120.281  0.00  0.00     0.006 C 
ENDBRANCH   8   9
BRANCH   8  11
ATOM     11  C   LIG d   1      -4.935  94.157 119.946  0.00  0.00     0.028 C 
ATOM     12  C   LIG d   1      -3.849  95.048 120.571  0.00  0.00     0.006 C 
ENDBRANCH   8  11
ENDBRANCH   7   8
ENDBRANCH   1   7
BRANCH   6  13
ATOM     13  N   LIG d   1      -2.868  92.024 118.686  0.00  0.00    -0.311 N 
ATOM     14  C   LIG d   1      -1.699  91.599 119.163  0.00  0.00     0.210 C 
ATOM     15  C   LIG d   1      -0.684  92.705 119.468  0.00  0.00     0.109 C 
ATOM     16  O   LIG d   1      -1.395  90.408 119.331  0.00  0.00    -0.276 OA
ATOM     17  H   LIG d   1      -3.017  93.005 118.550  0.00  0.00     0.149 HD
ENDBRANCH   6  13
BRANCH   5  18
ATOM     18  N   LIG d   1      -2.813  89.948 116.445  0.00  0.00     0.381 N 
ATOM     19  H   LIG d   1      -2.619  89.246 117.130  0.00  0.00    -0.090 HD
ATOM     20  H   LIG d   1      -2.022  90.566 116.394  0.00  0.00    -0.090 HD
ATOM     21  H   LIG d   1      -2.969  89.523 115.558  0.00  0.00    -0.090 HD
ENDBRANCH   5  18
BRANCH   3  22
ATOM     22  C   LIG d   1      -7.597  90.153 116.339  0.00  0.00     0.382 C 
ATOM     23  O   LIG d   1      -7.767  90.592 115.176  0.00  0.00    -0.241 OA
ATOM     24  O   LIG d   1      -8.504  89.498 116.886  0.00  0.00    -0.241 OA
ENDBRANCH   3  22
TORSDOF 7
ENDMDL
MODEL 5
REMARK VINA RESULT:      -5.2      2.389      5.058
REMARK  7 active torsions:
REMARK  status: ('A' for Active; 'I' for Inactive)
REMARK    1  A    between atoms: C_2  and  C_3 
REMARK    2  A    between atoms: C_3  and  O_6 
REMARK    3  A    between atoms: C_3  and  C_4 
REMARK    4  A    between atoms: C_7  and  O_6 
REMARK    5  A    between atoms: C_9  and  C_10 
REMARK    6  A    between atoms: N_15  and  C_14 
REMARK    7  A    between atoms: N_20  and  C_19 
REMARK       I    between atoms: C_22  and  N_20 
ROOT
ATOM      1  C   LIG d   1      -5.368  75.664 117.687  0.00  0.00     0.161 C 
ATOM      2  C   LIG d   1      -5.790  74.397 117.253  0.00  0.00     0.016 C 
ATOM      3  C   LIG d   1      -7.126  74.100 116.898  0.00  0.00     0.038 C 
ATOM      4  C   LIG d   1      -8.108  75.098 116.809  0.00  0.00     0.028 C 
ATOM      5  C   LIG d   1      -7.846  76.290 117.723  0.00  0.00    -0.047 C 
ATOM      6  C   LIG d   1      -6.402  76.793 117.490  0.00  0.00     0.091 C 
ENDROOT
BRANCH   1   7
ATOM      7  O   LIG d   1      -4.122  76.010 117.050  0.00  0.00    -0.368 OA
BRANCH   7   8
ATOM      8  C   LIG d   1      -3.831  75.325 115.807  0.00  0.00     0.119 C 
BRANCH   8   9
ATOM      9  C   LIG d   1      -2.304  75.125 115.736  0.00  0.00     0.028 C 
ATOM     10  C   LIG d   1      -1.673  74.928 117.125  0.00  0.00     0.006 C 
ENDBRANCH   8   9
BRANCH   8  11
ATOM     11  C   LIG d   1      -4.182  76.194 114.596  0.00  0.00     0.028 C 
ATOM     12  C   LIG d   1      -5.458  75.726 113.877  0.00  0.00     0.006 C 
ENDBRANCH   8  11
ENDBRANCH   7   8
ENDBRANCH   1   7
BRANCH   6  13
ATOM     13  N   LIG d   1      -6.035  77.905 118.405  0.00  0.00    -0.311 N 
ATOM     14  C   LIG d   1      -5.871  79.163 118.000  0.00  0.00     0.210 C 
ATOM     15  C   LIG d   1      -5.473  80.150 119.102  0.00  0.00     0.109 C 
ATOM     16  O   LIG d   1      -6.048  79.561 116.839  0.00  0.00    -0.276 OA
ATOM     17  H   LIG d   1      -5.902  77.676 119.370  0.00  0.00     0.149 HD
ENDBRANCH   6  13
BRANCH   5  18
ATOM     18  N   LIG d   1      -8.868  77.311 117.428  0.00  0.00     0.381 N 
ATOM     19  H   LIG d   1      -9.328  77.584 118.274  0.00  0.00    -0.090 HD
ATOM     20  H   LIG d   1      -9.554  76.916 116.809  0.00  0.00    -0.090 HD
ATOM     21  H   LIG d   1      -8.444  78.105 117.002  0.00  0.00    -0.090 HD
ENDBRANCH   5  18
BRANCH   3  22
ATOM     22  C   LIG d   1      -7.500  72.785 116.667  0.00  0.00     0.382 C 
ATOM     23  O   LIG d   1      -7.433  72.309 115.508  0.00  0.00    -0.241 OA
ATOM     24  O   LIG d   1      -7.945  72.082 117.594  0.00  0.00    -0.241 OA
ENDBRANCH   3  22
TORSDOF 7
ENDMDL
MODEL 6
REMARK VINA RESULT:      -5.2      2.096      5.180
REMARK  7 active torsions:
REMARK  status: ('A' for Active; 'I' for Inactive)
REMARK    1  A    between atoms: C_2  and  C_3 
REMARK    2  A    between atoms: C_3  and  O_6 
REMARK    3  A    between atoms: C_3  and  C_4 
REMARK    4  A    between atoms: C_7  and  O_6 
REMARK    5  A    between atoms: C_9  and  C_10 
REMARK    6  A    between atoms: N_15  and  C_14 
REMARK    7  A    between atoms: N_20  and  C_19 
REMARK       I    between atoms: C_22  and  N_20 
ROOT
ATOM      1  C   LIG d   1      -6.955  76.369 117.343  0.00  0.00     0.161 C 
ATOM      2  C   LIG d   1      -7.856  75.322 117.090  0.00  0.00     0.016 C 
ATOM      3  C   LIG d   1      -7.467  73.965 117.004  0.00  0.00     0.038 C 
ATOM      4  C   LIG d   1      -6.166  73.545 117.318  0.00  0.00     0.028 C 
ATOM      5  C   LIG d   1      -5.110  74.621 117.086  0.00  0.00    -0.047 C 
ATOM      6  C   LIG d   1      -5.551  75.919 117.798  0.00  0.00     0.091 C 
ENDROOT
BRANCH   1   7
ATOM      7  O   LIG d   1      -7.524  77.282 118.303  0.00  0.00    -0.368 OA
BRANCH   7   8
ATOM      8  C   LIG d   1      -7.955  78.564 117.786  0.00  0.00     0.119 C 
BRANCH   8   9
ATOM      9  C   LIG d   1      -7.057  79.645 118.418  0.00  0.00     0.028 C 
ATOM     10  C   LIG d   1      -6.131  80.315 117.389  0.00  0.00     0.006 C 
ENDBRANCH   8   9
BRANCH   8  11
ATOM     11  C   LIG d   1      -9.378  78.901 118.244  0.00  0.00     0.028 C 
ATOM     12  C   LIG d   1      -9.748  80.373 118.004  0.00  0.00     0.006 C 
ENDBRANCH   8  11
ENDBRANCH   7   8
ENDBRANCH   1   7
BRANCH   6  13
ATOM     13  N   LIG d   1      -4.615  77.047 117.552  0.00  0.00    -0.311 N 
ATOM     14  C   LIG d   1      -3.626  77.375 118.382  0.00  0.00     0.210 C 
ATOM     15  C   LIG d   1      -2.791  78.583 117.948  0.00  0.00     0.109 C 
ATOM     16  O   LIG d   1      -3.341  76.759 119.420  0.00  0.00    -0.276 OA
ATOM     17  H   LIG d   1      -4.755  77.581 116.716  0.00  0.00     0.149 HD
ENDBRANCH   6  13
BRANCH   5  18
ATOM     18  N   LIG d   1      -3.823  74.097 117.582  0.00  0.00     0.381 N 
ATOM     19  H   LIG d   1      -3.713  73.144 117.297  0.00  0.00    -0.090 HD
ATOM     20  H   LIG d   1      -3.826  74.128 118.587  0.00  0.00    -0.090 HD
ATOM     21  H   LIG d   1      -3.072  74.646 117.228  0.00  0.00    -0.090 HD
ENDBRANCH   5  18
BRANCH   3  22
ATOM     22  C   LIG d   1      -8.376  73.016 116.562  0.00  0.00     0.382 C 
ATOM     23  O   LIG d   1      -9.501  72.923 117.109  0.00  0.00    -0.241 OA
ATOM     24  O   LIG d   1      -8.069  72.223 115.652  0.00  0.00    -0.241 OA
ENDBRANCH   3  22
TORSDOF 7
ENDMDL
MODEL 7
REMARK VINA RESULT:      -5.1      3.763      5.780
REMARK  7 active torsions:
REMARK  status: ('A' for Active; 'I' for Inactive)
REMARK    1  A    between atoms: C_2  and  C_3 
REMARK    2  A    between atoms: C_3  and  O_6 
REMARK    3  A    between atoms: C_3  and  C_4 
REMARK    4  A    between atoms: C_7  and  O_6 
REMARK    5  A    between atoms: C_9  and  C_10 
REMARK    6  A    between atoms: N_15  and  C_14 
REMARK    7  A    between atoms: N_20  and  C_19 
REMARK       I    between atoms: C_22  and  N_20 
ROOT
ATOM      1  C   LIG d   1      -3.094  75.686 117.328  0.00  0.00     0.161 C 
ATOM      2  C   LIG d   1      -3.473  76.393 116.175  0.00  0.00     0.016 C 
ATOM      3  C   LIG d   1      -2.561  76.790 115.171  0.00  0.00     0.038 C 
ATOM      4  C   LIG d   1      -1.221  76.372 115.179  0.00  0.00     0.028 C 
ATOM      5  C   LIG d   1      -0.685  76.085 116.577  0.00  0.00    -0.047 C 
ATOM      6  C   LIG d   1      -1.657  75.125 117.300  0.00  0.00     0.091 C 
ENDROOT
BRANCH   1   7
ATOM      7  O   LIG d   1      -4.039  74.629 117.586  0.00  0.00    -0.368 OA
BRANCH   7   8
ATOM      8  C   LIG d   1      -5.428  74.933 117.306  0.00  0.00     0.119 C 
BRANCH   8   9
ATOM      9  C   LIG d   1      -6.099  75.304 118.643  0.00  0.00     0.028 C 
ATOM     10  C   LIG d   1      -6.322  76.819 118.787  0.00  0.00     0.006 C 
ENDBRANCH   8   9
BRANCH   8  11
ATOM     11  C   LIG d   1      -6.180  73.696 116.805  0.00  0.00     0.028 C 
ATOM     12  C   LIG d   1      -7.674  73.722 117.162  0.00  0.00     0.006 C 
ENDBRANCH   8  11
ENDBRANCH   7   8
ENDBRANCH   1   7
BRANCH   6  13
ATOM     13  N   LIG d   1      -1.251  74.859 118.705  0.00  0.00    -0.311 N 
ATOM     14  C   LIG d   1      -0.968  73.643 119.168  0.00  0.00     0.210 C 
ATOM     15  C   LIG d   1      -0.590  73.588 120.652  0.00  0.00     0.109 C 
ATOM     16  O   LIG d   1      -0.964  72.608 118.484  0.00  0.00    -0.276 OA
ATOM     17  H   LIG d   1      -1.198  75.646 119.321  0.00  0.00     0.149 HD
ENDBRANCH   6  13
BRANCH   5  18
ATOM     18  N   LIG d   1       0.673  75.529 116.428  0.00  0.00     0.381 N 
ATOM     19  H   LIG d   1       1.093  75.881 115.591  0.00  0.00    -0.090 HD
ATOM     20  H   LIG d   1       0.608  74.529 116.352  0.00  0.00    -0.090 HD
ATOM     21  H   LIG d   1       1.231  75.774 117.216  0.00  0.00    -0.090 HD
ENDBRANCH   5  18
BRANCH   3  22
ATOM     22  C   LIG d   1      -2.977  77.648 114.164  0.00  0.00     0.382 C 
ATOM     23  O   LIG d   1      -2.729  78.875 114.243  0.00  0.00    -0.241 OA
ATOM     24  O   LIG d   1      -3.636  77.216 113.199  0.00  0.00    -0.241 OA
ENDBRANCH   3  22
TORSDOF 7
ENDMDL
MODEL 8
REMARK VINA RESULT:      -5.1     13.172     14.780
REMARK  7 active torsions:
REMARK  status: ('A' for Active; 'I' for Inactive)
REMARK    1  A    between atoms: C_2  and  C_3 
REMARK    2  A    between atoms: C_3  and  O_6 
REMARK    3  A    between atoms: C_3  and  C_4 
REMARK    4  A    between atoms: C_7  and  O_6 
REMARK    5  A    between atoms: C_9  and  C_10 
REMARK    6  A    between atoms: N_15  and  C_14 
REMARK    7  A    between atoms: N_20  and  C_19 
REMARK       I    between atoms: C_22  and  N_20 
ROOT
ATOM      1  C   LIG d   1      -3.635  90.334 117.772  0.00  0.00     0.161 C 
ATOM      2  C   LIG d   1      -4.651  89.958 116.878  0.00  0.00     0.016 C 
ATOM      3  C   LIG d   1      -5.999  90.365 117.017  0.00  0.00     0.038 C 
ATOM      4  C   LIG d   1      -6.394  91.304 117.981  0.00  0.00     0.028 C 
ATOM      5  C   LIG d   1      -5.499  91.319 119.215  0.00  0.00    -0.047 C 
ATOM      6  C   LIG d   1      -4.026  91.448 118.765  0.00  0.00     0.091 C 
ENDROOT
BRANCH   1   7
ATOM      7  O   LIG d   1      -2.453  90.710 117.038  0.00  0.00    -0.368 OA
BRANCH   7   8
ATOM      8  C   LIG d   1      -1.352  89.769 117.077  0.00  0.00     0.119 C 
BRANCH   8   9
ATOM      9  C   LIG d   1      -1.634  88.774 118.219  0.00  0.00     0.028 C 
ATOM     10  C   LIG d   1      -0.542  88.800 119.303  0.00  0.00     0.006 C 
ENDBRANCH   8   9
BRANCH   8  11
ATOM     11  C   LIG d   1      -0.040  90.462 117.457  0.00  0.00     0.028 C 
ATOM     12  C   LIG d   1       1.059  90.280 116.398  0.00  0.00     0.006 C 
ENDBRANCH   8  11
ENDBRANCH   7   8
ENDBRANCH   1   7
BRANCH   6  13
ATOM     13  N   LIG d   1      -3.077  91.386 119.907  0.00  0.00    -0.311 N 
ATOM     14  C   LIG d   1      -2.069  92.242 120.071  0.00  0.00     0.210 C 
ATOM     15  C   LIG d   1      -1.198  91.987 121.305  0.00  0.00     0.109 C 
ATOM     16  O   LIG d   1      -1.833  93.207 119.328  0.00  0.00    -0.276 OA
ATOM     17  H   LIG d   1      -3.214  90.653 120.575  0.00  0.00     0.149 HD
ENDBRANCH   6  13
BRANCH   5  18
ATOM     18  N   LIG d   1      -5.941  92.435 120.073  0.00  0.00     0.381 N 
ATOM     19  H   LIG d   1      -5.286  92.571 120.817  0.00  0.00    -0.090 HD
ATOM     20  H   LIG d   1      -6.832  92.201 120.476  0.00  0.00    -0.090 HD
ATOM     21  H   LIG d   1      -6.021  93.269 119.534  0.00  0.00    -0.090 HD
ENDBRANCH   5  18
BRANCH   3  22
ATOM     22  C   LIG d   1      -6.974  89.798 116.210  0.00  0.00     0.382 C 
ATOM     23  O   LIG d   1      -7.954  89.211 116.729  0.00  0.00    -0.241 OA
ATOM     24  O   LIG d   1      -6.863  89.828 114.970  0.00  0.00    -0.241 OA
ENDBRANCH   3  22
TORSDOF 7
ENDMDL
MODEL 9
REMARK VINA RESULT:      -5.0      2.864      5.940
REMARK  7 active torsions:
REMARK  status: ('A' for Active; 'I' for Inactive)
REMARK    1  A    between atoms: C_2  and  C_3 
REMARK    2  A    between atoms: C_3  and  O_6 
REMARK    3  A    between atoms: C_3  and  C_4 
REMARK    4  A    between atoms: C_7  and  O_6 
REMARK    5  A    between atoms: C_9  and  C_10 
REMARK    6  A    between atoms: N_15  and  C_14 
REMARK    7  A    between atoms: N_20  and  C_19 
REMARK       I    between atoms: C_22  and  N_20 
ROOT
ATOM      1  C   LIG d   1      -4.513  75.365 117.287  0.00  0.00     0.161 C 
ATOM      2  C   LIG d   1      -3.465  74.671 116.661  0.00  0.00     0.016 C 
ATOM      3  C   LIG d   1      -2.110  74.794 117.046  0.00  0.00     0.038 C 
ATOM      4  C   LIG d   1      -1.727  75.511 118.190  0.00  0.00     0.028 C 
ATOM      5  C   LIG d   1      -2.691  76.635 118.552  0.00  0.00    -0.047 C 
ATOM      6  C   LIG d   1      -4.127  76.066 118.607  0.00  0.00     0.091 C 
ENDROOT
BRANCH   1   7
ATOM      7  O   LIG d   1      -5.629  74.479 117.498  0.00  0.00    -0.368 OA
BRANCH   7   8
ATOM      8  C   LIG d   1      -6.669  74.512 116.490  0.00  0.00     0.119 C 
BRANCH   8   9
ATOM      9  C   LIG d   1      -7.976  74.938 117.186  0.00  0.00     0.028 C 
ATOM     10  C   LIG d   1      -8.296  76.427 116.972  0.00  0.00     0.006 C 
ENDBRANCH   8   9
BRANCH   8  11
ATOM     11  C   LIG d   1      -6.946  73.114 115.929  0.00  0.00     0.028 C 
ATOM     12  C   LIG d   1      -7.893  72.292 116.818  0.00  0.00     0.006 C 
ENDBRANCH   8  11
ENDBRANCH   7   8
ENDBRANCH   1   7
BRANCH   6  13
ATOM     13  N   LIG d   1      -5.144  77.117 118.872  0.00  0.00    -0.311 N 
ATOM     14  C   LIG d   1      -6.009  77.062 119.884  0.00  0.00     0.210 C 
ATOM     15  C   LIG d   1      -6.985  78.239 119.965  0.00  0.00     0.109 C 
ATOM     16  O   LIG d   1      -6.038  76.166 120.741  0.00  0.00    -0.276 OA
ATOM     17  H   LIG d   1      -5.170  77.896 118.244  0.00  0.00     0.149 HD
ENDBRANCH   6  13
BRANCH   5  18
ATOM     18  N   LIG d   1      -2.247  77.208 119.836  0.00  0.00     0.381 N 
ATOM     19  H   LIG d   1      -2.109  78.194 119.737  0.00  0.00    -0.090 HD
ATOM     20  H   LIG d   1      -1.369  76.791 120.091  0.00  0.00    -0.090 HD
ATOM     21  H   LIG d   1      -2.926  77.029 120.543  0.00  0.00    -0.090 HD
ENDBRANCH   5  18
BRANCH   3  22
ATOM     22  C   LIG d   1      -1.117  74.229 116.260  0.00  0.00     0.382 C 
ATOM     23  O   LIG d   1      -1.009  74.558 115.054  0.00  0.00    -0.241 OA
ATOM     24  O   LIG d   1      -0.357  73.361 116.729  0.00  0.00    -0.241 OA
ENDBRANCH   3  22
TORSDOF 7
ENDMDL
