MODEL 1
REMARK VINA RESULT:      -5.6      0.000      0.000
REMARK  7 active torsions:
REMARK  status: ('A' for Active; 'I' for Inactive)
REMARK    1  A    between atoms: C_2  and  C_3 
REMARK    2  A    between atoms: C_3  and  O_6 
REMARK    3  A    between atoms: C_3  and  C_4 
REMARK    4  A    between atoms: C_7  and  O_6 
REMARK    5  A    between atoms: C_9  and  C_10 
REMARK    6  A    between atoms: N_15  and  C_14 
REMARK    7  A    between atoms: N_20  and  C_19 
REMARK       I    between atoms: C_22  and  N_20 
ROOT
ATOM      1  C   LIG d   1      -5.136  91.723 117.264  0.00  0.00     0.161 C 
ATOM      2  C   LIG d   1      -5.839  91.047 116.253  0.00  0.00     0.016 C 
ATOM      3  C   LIG d   1      -6.882  91.638 115.503  0.00  0.00     0.038 C 
ATOM      4  C   LIG d   1      -7.193  93.001 115.611  0.00  0.00     0.028 C 
ATOM      5  C   LIG d   1      -6.851  93.594 116.973  0.00  0.00    -0.047 C 
ATOM      6  C   LIG d   1      -5.386  93.245 117.320  0.00  0.00     0.091 C 
ENDROOT
BRANCH   1   7
ATOM      7  O   LIG d   1      -3.726  91.451 117.144  0.00  0.00    -0.368 OA
BRANCH   7   8
ATOM      8  C   LIG d   1      -3.111  90.766 118.263  0.00  0.00     0.119 C 
BRANCH   8   9
ATOM      9  C   LIG d   1      -1.639  91.216 118.329  0.00  0.00     0.028 C 
ATOM     10  C   LIG d   1      -0.761  90.509 117.283  0.00  0.00     0.006 C 
ENDBRANCH   8   9
BRANCH   8  11
ATOM     11  C   LIG d   1      -3.062  89.253 118.030  0.00  0.00     0.028 C 
ATOM     12  C   LIG d   1      -3.145  88.447 119.336  0.00  0.00     0.006 C 
ENDBRANCH   8  11
ENDBRANCH   7   8
ENDBRANCH   1   7
BRANCH   6  13
ATOM     13  N   LIG d   1      -4.996  93.715 118.674  0.00  0.00    -0.311 N 
ATOM     14  C   LIG d   1      -3.871  94.384 118.922  0.00  0.00     0.210 C 
ATOM     15  C   LIG d   1      -3.652  94.758 120.392  0.00  0.00     0.109 C 
ATOM     16  O   LIG d   1      -3.050  94.732 118.060  0.00  0.00    -0.276 OA
ATOM     17  H   LIG d   1      -5.620  93.503 119.428  0.00  0.00     0.149 HD
ENDBRANCH   6  13
BRANCH   5  18
ATOM     18  N   LIG d   1      -7.098  95.047 116.902  0.00  0.00     0.381 N 
ATOM     19  H   LIG d   1      -7.350  95.393 117.806  0.00  0.00    -0.090 HD
ATOM     20  H   LIG d   1      -7.864  95.216 116.274  0.00  0.00    -0.090 HD
ATOM     21  H   LIG d   1      -6.282  95.515 116.574  0.00  0.00    -0.090 HD
ENDBRANCH   5  18
BRANCH   3  22
ATOM     22  C   LIG d   1      -7.653  90.851 114.661  0.00  0.00     0.382 C 
ATOM     23  O   LIG d   1      -8.341  89.914 115.133  0.00  0.00    -0.241 OA
ATOM     24  O   LIG d   1      -7.636  91.038 113.429  0.00  0.00    -0.241 OA
ENDBRANCH   3  22
TORSDOF 7
ENDMDL
MODEL 2
REMARK VINA RESULT:      -5.5     13.985     16.678
REMARK  7 active torsions:
REMARK  status: ('A' for Active; 'I' for Inactive)
REMARK    1  A    between atoms: C_2  and  C_3 
REMARK    2  A    between atoms: C_3  and  O_6 
REMARK    3  A    between atoms: C_3  and  C_4 
REMARK    4  A    between atoms: C_7  and  O_6 
REMARK    5  A    between atoms: C_9  and  C_10 
REMARK    6  A    between atoms: N_15  and  C_14 
REMARK    7  A    between atoms: N_20  and  C_19 
REMARK       I    between atoms: C_22  and  N_20 
ROOT
ATOM      1  C   LIG d   1      -2.342  75.752 115.270  0.00  0.00     0.161 C 
ATOM      2  C   LIG d   1      -2.181  74.801 116.291  0.00  0.00     0.016 C 
ATOM      3  C   LIG d   1      -1.744  75.125 117.596  0.00  0.00     0.038 C 
ATOM      4  C   LIG d   1      -1.580  76.455 118.014  0.00  0.00     0.028 C 
ATOM      5  C   LIG d   1      -1.244  77.411 116.874  0.00  0.00    -0.047 C 
ATOM      6  C   LIG d   1      -2.275  77.221 115.739  0.00  0.00     0.091 C 
ENDROOT
BRANCH   1   7
ATOM      7  O   LIG d   1      -3.574  75.508 114.563  0.00  0.00    -0.368 OA
BRANCH   7   8
ATOM      8  C   LIG d   1      -4.742  75.263 115.384  0.00  0.00     0.119 C 
BRANCH   8   9
ATOM      9  C   LIG d   1      -5.431  73.995 114.843  0.00  0.00     0.028 C 
ATOM     10  C   LIG d   1      -6.655  73.590 115.681  0.00  0.00     0.006 C 
ENDBRANCH   8   9
BRANCH   8  11
ATOM     11  C   LIG d   1      -5.775  76.383 115.230  0.00  0.00     0.028 C 
ATOM     12  C   LIG d   1      -5.912  77.245 116.495  0.00  0.00     0.006 C 
ENDBRANCH   8  11
ENDBRANCH   7   8
ENDBRANCH   1   7
BRANCH   6  13
ATOM     13  N   LIG d   1      -1.970  78.059 114.550  0.00  0.00    -0.311 N 
ATOM     14  C   LIG d   1      -2.485  79.272 114.356  0.00  0.00     0.210 C 
ATOM     15  C   LIG d   1      -2.055  79.957 113.055  0.00  0.00     0.109 C 
ATOM     16  O   LIG d   1      -3.231  79.859 115.154  0.00  0.00    -0.276 OA
ATOM     17  H   LIG d   1      -1.348  77.673 113.867  0.00  0.00     0.149 HD
ENDBRANCH   6  13
BRANCH   5  18
ATOM     18  N   LIG d   1      -1.238  78.778 117.427  0.00  0.00     0.381 N 
ATOM     19  H   LIG d   1      -0.843  79.411 116.761  0.00  0.00    -0.090 HD
ATOM     20  H   LIG d   1      -0.665  78.792 118.253  0.00  0.00    -0.090 HD
ATOM     21  H   LIG d   1      -2.167  79.059 117.653  0.00  0.00    -0.090 HD
ENDBRANCH   5  18
BRANCH   3  22
ATOM     22  C   LIG d   1      -1.426  74.111 118.486  0.00  0.00     0.382 C 
ATOM     23  O   LIG d   1      -1.730  74.223 119.698  0.00  0.00    -0.241 OA
ATOM     24  O   LIG d   1      -0.801  73.105 118.101  0.00  0.00    -0.241 OA
ENDBRANCH   3  22
TORSDOF 7
ENDMDL
MODEL 3
REMARK VINA RESULT:      -5.4      1.722      2.371
REMARK  7 active torsions:
REMARK  status: ('A' for Active; 'I' for Inactive)
REMARK    1  A    between atoms: C_2  and  C_3 
REMARK    2  A    between atoms: C_3  and  O_6 
REMARK    3  A    between atoms: C_3  and  C_4 
REMARK    4  A    between atoms: C_7  and  O_6 
REMARK    5  A    between atoms: C_9  and  C_10 
REMARK    6  A    between atoms: N_15  and  C_14 
REMARK    7  A    between atoms: N_20  and  C_19 
REMARK       I    between atoms: C_22  and  N_20 
ROOT
ATOM      1  C   LIG d   1      -6.225  92.177 118.701  0.00  0.00     0.161 C 
ATOM      2  C   LIG d   1      -6.415  91.325 117.601  0.00  0.00     0.016 C 
ATOM      3  C   LIG d   1      -6.887  91.770 116.345  0.00  0.00     0.038 C 
ATOM      4  C   LIG d   1      -7.059  93.132 116.057  0.00  0.00     0.028 C 
ATOM      5  C   LIG d   1      -7.362  93.977 117.290  0.00  0.00    -0.047 C 
ATOM      6  C   LIG d   1      -6.300  93.683 118.374  0.00  0.00     0.091 C 
ENDROOT
BRANCH   1   7
ATOM      7  O   LIG d   1      -4.975  91.867 119.349  0.00  0.00    -0.368 OA
BRANCH   7   8
ATOM      8  C   LIG d   1      -3.804  91.842 118.495  0.00  0.00     0.119 C 
BRANCH   8   9
ATOM      9  C   LIG d   1      -3.080  90.504 118.742  0.00  0.00     0.028 C 
ATOM     10  C   LIG d   1      -3.199  89.543 117.547  0.00  0.00     0.006 C 
ENDBRANCH   8   9
BRANCH   8  11
ATOM     11  C   LIG d   1      -2.799  92.927 118.895  0.00  0.00     0.028 C 
ATOM     12  C   LIG d   1      -2.734  94.081 117.883  0.00  0.00     0.006 C 
ENDBRANCH   8  11
ENDBRANCH   7   8
ENDBRANCH   1   7
BRANCH   6  13
ATOM     13  N   LIG d   1      -6.571  94.406 119.644  0.00  0.00    -0.311 N 
ATOM     14  C   LIG d   1      -6.054  95.598 119.933  0.00  0.00     0.210 C 
ATOM     15  C   LIG d   1      -6.445  96.158 121.304  0.00  0.00     0.109 C 
ATOM     16  O   LIG d   1      -5.333  96.260 119.171  0.00  0.00    -0.276 OA
ATOM     17  H   LIG d   1      -7.171  93.955 120.307  0.00  0.00     0.149 HD
ENDBRANCH   6  13
BRANCH   5  18
ATOM     18  N   LIG d   1      -7.380  95.391 116.867  0.00  0.00     0.381 N 
ATOM     19  H   LIG d   1      -8.019  95.508 116.106  0.00  0.00    -0.090 HD
ATOM     20  H   LIG d   1      -6.461  95.647 116.551  0.00  0.00    -0.090 HD
ATOM     21  H   LIG d   1      -7.650  95.971 117.630  0.00  0.00    -0.090 HD
ENDBRANCH   5  18
BRANCH   3  22
ATOM     22  C   LIG d   1      -7.231  90.843 115.372  0.00  0.00     0.382 C 
ATOM     23  O   LIG d   1      -6.480  89.864 115.146  0.00  0.00    -0.241 OA
ATOM     24  O   LIG d   1      -8.260  90.998 114.688  0.00  0.00    -0.241 OA
ENDBRANCH   3  22
TORSDOF 7
ENDMDL
MODEL 4
REMARK VINA RESULT:      -5.4      2.630      5.055
REMARK  7 active torsions:
REMARK  status: ('A' for Active; 'I' for Inactive)
REMARK    1  A    between atoms: C_2  and  C_3 
REMARK    2  A    between atoms: C_3  and  O_6 
REMARK    3  A    between atoms: C_3  and  C_4 
REMARK    4  A    between atoms: C_7  and  O_6 
REMARK    5  A    between atoms: C_9  and  C_10 
REMARK    6  A    between atoms: N_15  and  C_14 
REMARK    7  A    between atoms: N_20  and  C_19 
REMARK       I    between atoms: C_22  and  N_20 
ROOT
ATOM      1  C   LIG d   1      -6.899  93.773 117.764  0.00  0.00     0.161 C 
ATOM      2  C   LIG d   1      -7.499  92.624 117.223  0.00  0.00     0.016 C 
ATOM      3  C   LIG d   1      -6.770  91.486 116.810  0.00  0.00     0.038 C 
ATOM      4  C   LIG d   1      -5.393  91.360 117.051  0.00  0.00     0.028 C 
ATOM      5  C   LIG d   1      -4.668  92.699 117.134  0.00  0.00    -0.047 C 
ATOM      6  C   LIG d   1      -5.410  93.610 118.137  0.00  0.00     0.091 C 
ENDROOT
BRANCH   1   7
ATOM      7  O   LIG d   1      -7.654  94.229 118.904  0.00  0.00    -0.368 OA
BRANCH   7   8
ATOM      8  C   LIG d   1      -8.596  95.302 118.657  0.00  0.00     0.119 C 
BRANCH   8   9
ATOM      9  C   LIG d   1      -7.862  96.631 118.917  0.00  0.00     0.028 C 
ATOM     10  C   LIG d   1      -7.565  97.401 117.619  0.00  0.00     0.006 C 
ENDBRANCH   8   9
BRANCH   8  11
ATOM     11  C   LIG d   1      -9.750  95.272 119.663  0.00  0.00     0.028 C 
ATOM     12  C   LIG d   1      -9.674  96.412 120.692  0.00  0.00     0.006 C 
ENDBRANCH   8  11
ENDBRANCH   7   8
ENDBRANCH   1   7
BRANCH   6  13
ATOM     13  N   LIG d   1      -4.815  94.970 118.216  0.00  0.00    -0.311 N 
ATOM     14  C   LIG d   1      -3.905  95.320 119.123  0.00  0.00     0.210 C 
ATOM     15  C   LIG d   1      -3.437  96.777 119.041  0.00  0.00     0.109 C 
ATOM     16  O   LIG d   1      -3.417  94.554 119.968  0.00  0.00    -0.276 OA
ATOM     17  H   LIG d   1      -5.131  95.646 117.548  0.00  0.00     0.149 HD
ENDBRANCH   6  13
BRANCH   5  18
ATOM     18  N   LIG d   1      -3.272  92.425 117.525  0.00  0.00     0.381 N 
ATOM     19  H   LIG d   1      -3.169  92.533 118.514  0.00  0.00    -0.090 HD
ATOM     20  H   LIG d   1      -2.671  93.091 117.071  0.00  0.00    -0.090 HD
ATOM     21  H   LIG d   1      -3.017  91.500 117.256  0.00  0.00    -0.090 HD
ENDBRANCH   5  18
BRANCH   3  22
ATOM     22  C   LIG d   1      -7.411  90.475 116.111  0.00  0.00     0.382 C 
ATOM     23  O   LIG d   1      -6.951  90.082 115.012  0.00  0.00    -0.241 OA
ATOM     24  O   LIG d   1      -8.470  89.981 116.544  0.00  0.00    -0.241 OA
ENDBRANCH   3  22
TORSDOF 7
ENDMDL
MODEL 5
REMARK VINA RESULT:      -5.3      2.366      5.102
REMARK  7 active torsions:
REMARK  status: ('A' for Active; 'I' for Inactive)
REMARK    1  A    between atoms: C_2  and  C_3 
REMARK    2  A    between atoms: C_3  and  O_6 
REMARK    3  A    between atoms: C_3  and  C_4 
REMARK    4  A    between atoms: C_7  and  O_6 
REMARK    5  A    between atoms: C_9  and  C_10 
REMARK    6  A    between atoms: N_15  and  C_14 
REMARK    7  A    between atoms: N_20  and  C_19 
REMARK       I    between atoms: C_22  and  N_20 
ROOT
ATOM      1  C   LIG d   1      -6.235  91.114 117.249  0.00  0.00     0.161 C 
ATOM      2  C   LIG d   1      -7.273  91.977 117.636  0.00  0.00     0.016 C 
ATOM      3  C   LIG d   1      -7.080  93.349 117.921  0.00  0.00     0.038 C 
ATOM      4  C   LIG d   1      -5.854  93.988 117.689  0.00  0.00     0.028 C 
ATOM      5  C   LIG d   1      -4.655  93.051 117.781  0.00  0.00    -0.047 C 
ATOM      6  C   LIG d   1      -4.911  91.818 116.884  0.00  0.00     0.091 C 
ENDROOT
BRANCH   1   7
ATOM      7  O   LIG d   1      -6.674  90.278 116.161  0.00  0.00    -0.368 OA
BRANCH   7   8
ATOM      8  C   LIG d   1      -7.851  90.729 115.446  0.00  0.00     0.119 C 
BRANCH   8   9
ATOM      9  C   LIG d   1      -8.769  89.507 115.249  0.00  0.00     0.028 C 
ATOM     10  C   LIG d   1      -9.432  89.053 116.560  0.00  0.00     0.006 C 
ENDBRANCH   8   9
BRANCH   8  11
ATOM     11  C   LIG d   1      -7.497  91.202 114.033  0.00  0.00     0.028 C 
ATOM     12  C   LIG d   1      -7.075  92.679 113.987  0.00  0.00     0.006 C 
ENDBRANCH   8  11
ENDBRANCH   7   8
ENDBRANCH   1   7
BRANCH   6  13
ATOM     13  N   LIG d   1      -3.824  90.810 116.981  0.00  0.00    -0.311 N 
ATOM     14  C   LIG d   1      -3.526  90.158 118.104  0.00  0.00     0.210 C 
ATOM     15  C   LIG d   1      -2.356  89.176 117.991  0.00  0.00     0.109 C 
ATOM     16  O   LIG d   1      -4.141  90.277 119.174  0.00  0.00    -0.276 OA
ATOM     17  H   LIG d   1      -3.294  90.629 116.151  0.00  0.00     0.149 HD
ENDBRANCH   6  13
BRANCH   5  18
ATOM     18  N   LIG d   1      -3.458  93.816 117.383  0.00  0.00     0.381 N 
ATOM     19  H   LIG d   1      -2.671  93.519 117.924  0.00  0.00    -0.090 HD
ATOM     20  H   LIG d   1      -3.619  94.791 117.570  0.00  0.00    -0.090 HD
ATOM     21  H   LIG d   1      -3.274  93.682 116.413  0.00  0.00    -0.090 HD
ENDBRANCH   5  18
BRANCH   3  22
ATOM     22  C   LIG d   1      -8.112  94.086 118.481  0.00  0.00     0.382 C 
ATOM     23  O   LIG d   1      -8.070  94.404 119.694  0.00  0.00    -0.241 OA
ATOM     24  O   LIG d   1      -9.107  94.400 117.799  0.00  0.00    -0.241 OA
ENDBRANCH   3  22
TORSDOF 7
ENDMDL
MODEL 6
REMARK VINA RESULT:      -5.2      2.586      4.454
REMARK  7 active torsions:
REMARK  status: ('A' for Active; 'I' for Inactive)
REMARK    1  A    between atoms: C_2  and  C_3 
REMARK    2  A    between atoms: C_3  and  O_6 
REMARK    3  A    between atoms: C_3  and  C_4 
REMARK    4  A    between atoms: C_7  and  O_6 
REMARK    5  A    between atoms: C_9  and  C_10 
REMARK    6  A    between atoms: N_15  and  C_14 
REMARK    7  A    between atoms: N_20  and  C_19 
REMARK       I    between atoms: C_22  and  N_20 
ROOT
ATOM      1  C   LIG d   1      -5.793  93.392 117.721  0.00  0.00     0.161 C 
ATOM      2  C   LIG d   1      -7.014  94.076 117.605  0.00  0.00     0.016 C 
ATOM      3  C   LIG d   1      -7.263  95.332 118.204  0.00  0.00     0.038 C 
ATOM      4  C   LIG d   1      -6.248  96.064 118.839  0.00  0.00     0.028 C 
ATOM      5  C   LIG d   1      -5.140  95.189 119.415  0.00  0.00    -0.047 C 
ATOM      6  C   LIG d   1      -4.639  94.225 118.316  0.00  0.00     0.091 C 
ENDROOT
BRANCH   1   7
ATOM      7  O   LIG d   1      -5.412  92.851 116.440  0.00  0.00    -0.368 OA
BRANCH   7   8
ATOM      8  C   LIG d   1      -6.286  91.833 115.893  0.00  0.00     0.119 C 
BRANCH   8   9
ATOM      9  C   LIG d   1      -5.428  90.580 115.629  0.00  0.00     0.028 C 
ATOM     10  C   LIG d   1      -4.255  90.454 116.615  0.00  0.00     0.006 C 
ENDBRANCH   8   9
BRANCH   8  11
ATOM     11  C   LIG d   1      -6.833  92.246 114.523  0.00  0.00     0.028 C 
ATOM     12  C   LIG d   1      -7.651  91.133 113.849  0.00  0.00     0.006 C 
ENDBRANCH   8  11
ENDBRANCH   7   8
ENDBRANCH   1   7
BRANCH   6  13
ATOM     13  N   LIG d   1      -3.612  93.276 118.820  0.00  0.00    -0.311 N 
ATOM     14  C   LIG d   1      -2.338  93.300 118.430  0.00  0.00     0.210 C 
ATOM     15  C   LIG d   1      -1.451  92.220 119.057  0.00  0.00     0.109 C 
ATOM     16  O   LIG d   1      -1.853  94.132 117.650  0.00  0.00    -0.276 OA
ATOM     17  H   LIG d   1      -3.913  92.587 119.480  0.00  0.00     0.149 HD
ENDBRANCH   6  13
BRANCH   5  18
ATOM     18  N   LIG d   1      -4.084  96.085 119.924  0.00  0.00     0.381 N 
ATOM     19  H   LIG d   1      -4.487  96.956 120.208  0.00  0.00    -0.090 HD
ATOM     20  H   LIG d   1      -3.428  96.267 119.185  0.00  0.00    -0.090 HD
ATOM     21  H   LIG d   1      -3.618  95.659 120.694  0.00  0.00    -0.090 HD
ENDBRANCH   5  18
BRANCH   3  22
ATOM     22  C   LIG d   1      -8.549  95.851 118.206  0.00  0.00     0.382 C 
ATOM     23  O   LIG d   1      -9.521  95.114 118.497  0.00  0.00    -0.241 OA
ATOM     24  O   LIG d   1      -8.753  97.034 117.876  0.00  0.00    -0.241 OA
ENDBRANCH   3  22
TORSDOF 7
ENDMDL
MODEL 7
REMARK VINA RESULT:      -5.1      1.578      4.652
REMARK  7 active torsions:
REMARK  status: ('A' for Active; 'I' for Inactive)
REMARK    1  A    between atoms: C_2  and  C_3 
REMARK    2  A    between atoms: C_3  and  O_6 
REMARK    3  A    between atoms: C_3  and  C_4 
REMARK    4  A    between atoms: C_7  and  O_6 
REMARK    5  A    between atoms: C_9  and  C_10 
REMARK    6  A    between atoms: N_15  and  C_14 
REMARK    7  A    between atoms: N_20  and  C_19 
REMARK       I    between atoms: C_22  and  N_20 
ROOT
ATOM      1  C   LIG d   1      -4.854  92.644 117.131  0.00  0.00     0.161 C 
ATOM      2  C   LIG d   1      -4.344  93.567 118.058  0.00  0.00     0.016 C 
ATOM      3  C   LIG d   1      -5.108  94.626 118.603  0.00  0.00     0.038 C 
ATOM      4  C   LIG d   1      -6.486  94.742 118.369  0.00  0.00     0.028 C 
ATOM      5  C   LIG d   1      -6.929  94.132 117.043  0.00  0.00    -0.047 C 
ATOM      6  C   LIG d   1      -6.385  92.688 116.949  0.00  0.00     0.091 C 
ENDROOT
BRANCH   1   7
ATOM      7  O   LIG d   1      -4.429  91.312 117.483  0.00  0.00    -0.368 OA
BRANCH   7   8
ATOM      8  C   LIG d   1      -3.338  91.221 118.432  0.00  0.00     0.119 C 
BRANCH   8   9
ATOM      9  C   LIG d   1      -2.110  90.680 117.674  0.00  0.00     0.028 C 
ATOM     10  C   LIG d   1      -0.814  91.416 118.054  0.00  0.00     0.006 C 
ENDBRANCH   8   9
BRANCH   8  11
ATOM     11  C   LIG d   1      -3.631  90.186 119.522  0.00  0.00     0.028 C 
ATOM     12  C   LIG d   1      -3.253  88.756 119.103  0.00  0.00     0.006 C 
ENDBRANCH   8  11
ENDBRANCH   7   8
ENDBRANCH   1   7
BRANCH   6  13
ATOM     13  N   LIG d   1      -6.702  92.047 115.646  0.00  0.00    -0.311 N 
ATOM     14  C   LIG d   1      -7.441  90.945 115.531  0.00  0.00     0.210 C 
ATOM     15  C   LIG d   1      -7.629  90.439 114.098  0.00  0.00     0.109 C 
ATOM     16  O   LIG d   1      -7.984  90.356 116.478  0.00  0.00    -0.276 OA
ATOM     17  H   LIG d   1      -6.327  92.477 114.823  0.00  0.00     0.149 HD
ENDBRANCH   6  13
BRANCH   5  18
ATOM     18  N   LIG d   1      -8.402  94.200 116.991  0.00  0.00     0.381 N 
ATOM     19  H   LIG d   1      -8.766  94.356 117.910  0.00  0.00    -0.090 HD
ATOM     20  H   LIG d   1      -8.756  93.321 116.657  0.00  0.00    -0.090 HD
ATOM     21  H   LIG d   1      -8.688  94.935 116.383  0.00  0.00    -0.090 HD
ENDBRANCH   5  18
BRANCH   3  22
ATOM     22  C   LIG d   1      -4.483  95.605 119.359  0.00  0.00     0.382 C 
ATOM     23  O   LIG d   1      -4.981  95.965 120.453  0.00  0.00    -0.241 OA
ATOM     24  O   LIG d   1      -3.452  96.165 118.941  0.00  0.00    -0.241 OA
ENDBRANCH   3  22
TORSDOF 7
ENDMDL
MODEL 8
REMARK VINA RESULT:      -5.1      1.469      2.123
REMARK  7 active torsions:
REMARK  status: ('A' for Active; 'I' for Inactive)
REMARK    1  A    between atoms: C_2  and  C_3 
REMARK    2  A    between atoms: C_3  and  O_6 
REMARK    3  A    between atoms: C_3  and  C_4 
REMARK    4  A    between atoms: C_7  and  O_6 
REMARK    5  A    between atoms: C_9  and  C_10 
REMARK    6  A    between atoms: N_15  and  C_14 
REMARK    7  A    between atoms: N_20  and  C_19 
REMARK       I    between atoms: C_22  and  N_20 
ROOT
ATOM      1  C   LIG d   1      -3.892  91.011 117.518  0.00  0.00     0.161 C 
ATOM      2  C   LIG d   1      -4.800  90.617 116.521  0.00  0.00     0.016 C 
ATOM      3  C   LIG d   1      -5.817  91.460 116.018  0.00  0.00     0.038 C 
ATOM      4  C   LIG d   1      -5.901  92.814 116.372  0.00  0.00     0.028 C 
ATOM      5  C   LIG d   1      -5.321  93.117 117.750  0.00  0.00    -0.047 C 
ATOM      6  C   LIG d   1      -3.897  92.520 117.837  0.00  0.00     0.091 C 
ENDROOT
BRANCH   1   7
ATOM      7  O   LIG d   1      -2.563  90.577 117.168  0.00  0.00    -0.368 OA
BRANCH   7   8
ATOM      8  C   LIG d   1      -2.143  89.304 117.718  0.00  0.00     0.119 C 
BRANCH   8   9
ATOM      9  C   LIG d   1      -2.492  89.310 119.219  0.00  0.00     0.028 C 
ATOM     10  C   LIG d   1      -3.071  87.967 119.692  0.00  0.00     0.006 C 
ENDBRANCH   8   9
BRANCH   8  11
ATOM     11  C   LIG d   1      -0.620  89.147 117.656  0.00  0.00     0.028 C 
ATOM     12  C   LIG d   1       0.111  90.012 118.695  0.00  0.00     0.006 C 
ENDBRANCH   8  11
ENDBRANCH   7   8
ENDBRANCH   1   7
BRANCH   6  13
ATOM     13  N   LIG d   1      -3.290  92.698 119.182  0.00  0.00    -0.311 N 
ATOM     14  C   LIG d   1      -2.032  93.093 119.372  0.00  0.00     0.210 C 
ATOM     15  C   LIG d   1      -1.600  93.192 120.838  0.00  0.00     0.109 C 
ATOM     16  O   LIG d   1      -1.243  93.401 118.466  0.00  0.00    -0.276 OA
ATOM     17  H   LIG d   1      -3.869  92.500 119.974  0.00  0.00     0.149 HD
ENDBRANCH   6  13
BRANCH   5  18
ATOM     18  N   LIG d   1      -5.347  94.580 117.933  0.00  0.00     0.381 N 
ATOM     19  H   LIG d   1      -5.909  94.812 118.727  0.00  0.00    -0.090 HD
ATOM     20  H   LIG d   1      -5.760  95.002 117.120  0.00  0.00    -0.090 HD
ATOM     21  H   LIG d   1      -4.420  94.924 118.061  0.00  0.00    -0.090 HD
ENDBRANCH   5  18
BRANCH   3  22
ATOM     22  C   LIG d   1      -6.790  90.938 115.179  0.00  0.00     0.382 C 
ATOM     23  O   LIG d   1      -7.377  89.872 115.487  0.00  0.00    -0.241 OA
ATOM     24  O   LIG d   1      -7.057  91.495 114.098  0.00  0.00    -0.241 OA
ENDBRANCH   3  22
TORSDOF 7
ENDMDL
MODEL 9
REMARK VINA RESULT:      -5.1     13.700     16.315
REMARK  7 active torsions:
REMARK  status: ('A' for Active; 'I' for Inactive)
REMARK    1  A    between atoms: C_2  and  C_3 
REMARK    2  A    between atoms: C_3  and  O_6 
REMARK    3  A    between atoms: C_3  and  C_4 
REMARK    4  A    between atoms: C_7  and  O_6 
REMARK    5  A    between atoms: C_9  and  C_10 
REMARK    6  A    between atoms: N_15  and  C_14 
REMARK    7  A    between atoms: N_20  and  C_19 
REMARK       I    between atoms: C_22  and  N_20 
ROOT
ATOM      1  C   LIG d   1      -3.643  76.934 115.565  0.00  0.00     0.161 C 
ATOM      2  C   LIG d   1      -2.814  75.825 115.327  0.00  0.00     0.016 C 
ATOM      3  C   LIG d   1      -1.927  75.295 116.292  0.00  0.00     0.038 C 
ATOM      4  C   LIG d   1      -1.919  75.748 117.619  0.00  0.00     0.028 C 
ATOM      5  C   LIG d   1      -2.376  77.195 117.768  0.00  0.00    -0.047 C 
ATOM      6  C   LIG d   1      -3.729  77.371 117.042  0.00  0.00     0.091 C 
ENDROOT
BRANCH   1   7
ATOM      7  O   LIG d   1      -4.961  76.680 115.040  0.00  0.00    -0.368 OA
BRANCH   7   8
ATOM      8  C   LIG d   1      -5.813  75.826 115.842  0.00  0.00     0.119 C 
BRANCH   8   9
ATOM      9  C   LIG d   1      -5.962  74.487 115.095  0.00  0.00     0.028 C 
ATOM     10  C   LIG d   1      -6.857  73.490 115.850  0.00  0.00     0.006 C 
ENDBRANCH   8   9
BRANCH   8  11
ATOM     11  C   LIG d   1      -7.232  76.394 115.945  0.00  0.00     0.028 C 
ATOM     12  C   LIG d   1      -7.624  76.761 117.385  0.00  0.00     0.006 C 
ENDBRANCH   8  11
ENDBRANCH   7   8
ENDBRANCH   1   7
BRANCH   6  13
ATOM     13  N   LIG d   1      -4.206  78.779 117.067  0.00  0.00    -0.311 N 
ATOM     14  C   LIG d   1      -4.982  79.273 118.030  0.00  0.00     0.210 C 
ATOM     15  C   LIG d   1      -5.376  80.742 117.853  0.00  0.00     0.109 C 
ATOM     16  O   LIG d   1      -5.354  78.643 119.032  0.00  0.00    -0.276 OA
ATOM     17  H   LIG d   1      -3.926  79.369 116.308  0.00  0.00     0.149 HD
ENDBRANCH   6  13
BRANCH   5  18
ATOM     18  N   LIG d   1      -2.451  77.493 119.211  0.00  0.00     0.381 N 
ATOM     19  H   LIG d   1      -1.667  78.051 119.483  0.00  0.00    -0.090 HD
ATOM     20  H   LIG d   1      -2.416  76.629 119.723  0.00  0.00    -0.090 HD
ATOM     21  H   LIG d   1      -3.299  77.975 119.416  0.00  0.00    -0.090 HD
ENDBRANCH   5  18
BRANCH   3  22
ATOM     22  C   LIG d   1      -1.006  74.326 115.921  0.00  0.00     0.382 C 
ATOM     23  O   LIG d   1      -0.484  73.591 116.793  0.00  0.00    -0.241 OA
ATOM     24  O   LIG d   1      -0.659  74.208 114.731  0.00  0.00    -0.241 OA
ENDBRANCH   3  22
TORSDOF 7
ENDMDL
