MODEL 1
REMARK VINA RESULT:      -5.5      0.000      0.000
REMARK  7 active torsions:
REMARK  status: ('A' for Active; 'I' for Inactive)
REMARK    1  A    between atoms: C_2  and  C_3 
REMARK    2  A    between atoms: C_3  and  O_6 
REMARK    3  A    between atoms: C_3  and  C_4 
REMARK    4  A    between atoms: C_7  and  O_6 
REMARK    5  A    between atoms: C_9  and  C_10 
REMARK    6  A    between atoms: N_15  and  C_14 
REMARK    7  A    between atoms: N_20  and  C_19 
REMARK       I    between atoms: C_22  and  N_20 
ROOT
ATOM      1  C   LIG d   1      -4.188  90.669 116.921  0.00  0.00     0.161 C 
ATOM      2  C   LIG d   1      -5.218  90.233 116.070  0.00  0.00     0.016 C 
ATOM      3  C   LIG d   1      -6.351  91.017 115.754  0.00  0.00     0.038 C 
ATOM      4  C   LIG d   1      -6.458  92.359 116.151  0.00  0.00     0.028 C 
ATOM      5  C   LIG d   1      -5.686  92.676 117.427  0.00  0.00    -0.047 C 
ATOM      6  C   LIG d   1      -4.233  92.170 117.274  0.00  0.00     0.091 C 
ENDROOT
BRANCH   1   7
ATOM      7  O   LIG d   1      -2.908  90.325 116.355  0.00  0.00    -0.368 OA
BRANCH   7   8
ATOM      8  C   LIG d   1      -2.338  89.065 116.786  0.00  0.00     0.119 C 
BRANCH   8   9
ATOM      9  C   LIG d   1      -2.577  88.944 118.303  0.00  0.00     0.028 C 
ATOM     10  C   LIG d   1      -1.848  87.737 118.918  0.00  0.00     0.006 C 
ENDBRANCH   8   9
BRANCH   8  11
ATOM     11  C   LIG d   1      -0.816  89.054 116.613  0.00  0.00     0.028 C 
ATOM     12  C   LIG d   1      -0.181  90.437 116.832  0.00  0.00     0.006 C 
ENDBRANCH   8  11
ENDBRANCH   7   8
ENDBRANCH   1   7
BRANCH   6  13
ATOM     13  N   LIG d   1      -3.432  92.366 118.510  0.00  0.00    -0.311 N 
ATOM     14  C   LIG d   1      -2.277  93.029 118.537  0.00  0.00     0.210 C 
ATOM     15  C   LIG d   1      -1.603  93.097 119.911  0.00  0.00     0.109 C 
ATOM     16  O   LIG d   1      -1.763  93.595 117.560  0.00  0.00    -0.276 OA
ATOM     17  H   LIG d   1      -3.791  91.966 119.354  0.00  0.00     0.149 HD
ENDBRANCH   6  13
BRANCH   5  18
ATOM     18  N   LIG d   1      -5.771  94.132 117.648  0.00  0.00     0.381 N 
ATOM     19  H   LIG d   1      -6.686  94.459 117.410  0.00  0.00    -0.090 HD
ATOM     20  H   LIG d   1      -5.107  94.591 117.049  0.00  0.00    -0.090 HD
ATOM     21  H   LIG d   1      -5.572  94.345 118.601  0.00  0.00    -0.090 HD
ENDBRANCH   5  18
BRANCH   3  22
ATOM     22  C   LIG d   1      -7.412  90.447 115.067  0.00  0.00     0.382 C 
ATOM     23  O   LIG d   1      -7.866  91.006 114.040  0.00  0.00    -0.241 OA
ATOM     24  O   LIG d   1      -7.948  89.404 115.486  0.00  0.00    -0.241 OA
ENDBRANCH   3  22
TORSDOF 7
ENDMDL
MODEL 2
REMARK VINA RESULT:      -5.4      2.177      4.530
REMARK  7 active torsions:
REMARK  status: ('A' for Active; 'I' for Inactive)
REMARK    1  A    between atoms: C_2  and  C_3 
REMARK    2  A    between atoms: C_3  and  O_6 
REMARK    3  A    between atoms: C_3  and  C_4 
REMARK    4  A    between atoms: C_7  and  O_6 
REMARK    5  A    between atoms: C_9  and  C_10 
REMARK    6  A    between atoms: N_15  and  C_14 
REMARK    7  A    between atoms: N_20  and  C_19 
REMARK       I    between atoms: C_22  and  N_20 
ROOT
ATOM      1  C   LIG d   1      -4.512  92.541 116.817  0.00  0.00     0.161 C 
ATOM      2  C   LIG d   1      -5.740  92.357 116.161  0.00  0.00     0.016 C 
ATOM      3  C   LIG d   1      -6.120  91.141 115.547  0.00  0.00     0.038 C 
ATOM      4  C   LIG d   1      -5.355  89.973 115.680  0.00  0.00     0.028 C 
ATOM      5  C   LIG d   1      -3.871  90.243 115.902  0.00  0.00    -0.047 C 
ATOM      6  C   LIG d   1      -3.712  91.245 117.068  0.00  0.00     0.091 C 
ENDROOT
BRANCH   1   7
ATOM      7  O   LIG d   1      -4.720  93.249 118.055  0.00  0.00    -0.368 OA
BRANCH   7   8
ATOM      8  C   LIG d   1      -6.085  93.301 118.538  0.00  0.00     0.119 C 
BRANCH   8   9
ATOM      9  C   LIG d   1      -6.341  94.731 119.050  0.00  0.00     0.028 C 
ATOM     10  C   LIG d   1      -7.221  95.550 118.090  0.00  0.00     0.006 C 
ENDBRANCH   8   9
BRANCH   8  11
ATOM     11  C   LIG d   1      -6.281  92.393 119.755  0.00  0.00     0.028 C 
ATOM     12  C   LIG d   1      -7.295  92.957 120.763  0.00  0.00     0.006 C 
ENDBRANCH   8  11
ENDBRANCH   7   8
ENDBRANCH   1   7
BRANCH   6  13
ATOM     13  N   LIG d   1      -2.295  91.629 117.297  0.00  0.00    -0.311 N 
ATOM     14  C   LIG d   1      -1.647  91.395 118.437  0.00  0.00     0.210 C 
ATOM     15  C   LIG d   1      -0.197  91.889 118.470  0.00  0.00     0.109 C 
ATOM     16  O   LIG d   1      -2.125  90.796 119.412  0.00  0.00    -0.276 OA
ATOM     17  H   LIG d   1      -1.820  92.092 116.547  0.00  0.00     0.149 HD
ENDBRANCH   6  13
BRANCH   5  18
ATOM     18  N   LIG d   1      -3.216  88.947 116.161  0.00  0.00     0.381 N 
ATOM     19  H   LIG d   1      -2.333  89.096 116.607  0.00  0.00    -0.090 HD
ATOM     20  H   LIG d   1      -3.052  88.484 115.284  0.00  0.00    -0.090 HD
ATOM     21  H   LIG d   1      -3.797  88.381 116.740  0.00  0.00    -0.090 HD
ENDBRANCH   5  18
BRANCH   3  22
ATOM     22  C   LIG d   1      -7.259  91.097 114.757  0.00  0.00     0.382 C 
ATOM     23  O   LIG d   1      -8.197  90.319 115.053  0.00  0.00    -0.241 OA
ATOM     24  O   LIG d   1      -7.340  91.793 113.727  0.00  0.00    -0.241 OA
ENDBRANCH   3  22
TORSDOF 7
ENDMDL
MODEL 3
REMARK VINA RESULT:      -5.3      2.259      4.728
REMARK  7 active torsions:
REMARK  status: ('A' for Active; 'I' for Inactive)
REMARK    1  A    between atoms: C_2  and  C_3 
REMARK    2  A    between atoms: C_3  and  O_6 
REMARK    3  A    between atoms: C_3  and  C_4 
REMARK    4  A    between atoms: C_7  and  O_6 
REMARK    5  A    between atoms: C_9  and  C_10 
REMARK    6  A    between atoms: N_15  and  C_14 
REMARK    7  A    between atoms: N_20  and  C_19 
REMARK       I    between atoms: C_22  and  N_20 
ROOT
ATOM      1  C   LIG d   1      -5.459  92.732 117.365  0.00  0.00     0.161 C 
ATOM      2  C   LIG d   1      -6.572  91.987 116.939  0.00  0.00     0.016 C 
ATOM      3  C   LIG d   1      -6.468  90.736 116.290  0.00  0.00     0.038 C 
ATOM      4  C   LIG d   1      -5.241  90.069 116.157  0.00  0.00     0.028 C 
ATOM      5  C   LIG d   1      -4.041  91.010 116.119  0.00  0.00    -0.047 C 
ATOM      6  C   LIG d   1      -4.118  91.970 117.328  0.00  0.00     0.091 C 
ENDROOT
BRANCH   1   7
ATOM      7  O   LIG d   1      -5.700  93.259 118.684  0.00  0.00    -0.368 OA
BRANCH   7   8
ATOM      8  C   LIG d   1      -5.882  94.694 118.775  0.00  0.00     0.119 C 
BRANCH   8   9
ATOM      9  C   LIG d   1      -4.986  95.203 119.920  0.00  0.00     0.028 C 
ATOM     10  C   LIG d   1      -3.852  96.113 119.419  0.00  0.00     0.006 C 
ENDBRANCH   8   9
BRANCH   8  11
ATOM     11  C   LIG d   1      -7.313  95.049 119.190  0.00  0.00     0.028 C 
ATOM     12  C   LIG d   1      -7.985  96.037 118.224  0.00  0.00     0.006 C 
ENDBRANCH   8  11
ENDBRANCH   7   8
ENDBRANCH   1   7
BRANCH   6  13
ATOM     13  N   LIG d   1      -3.027  92.980 117.320  0.00  0.00    -0.311 N 
ATOM     14  C   LIG d   1      -1.900  92.846 118.017  0.00  0.00     0.210 C 
ATOM     15  C   LIG d   1      -0.916  94.012 117.884  0.00  0.00     0.109 C 
ATOM     16  O   LIG d   1      -1.608  91.858 118.708  0.00  0.00    -0.276 OA
ATOM     17  H   LIG d   1      -3.168  93.799 116.762  0.00  0.00     0.149 HD
ENDBRANCH   6  13
BRANCH   5  18
ATOM     18  N   LIG d   1      -2.822  90.179 116.117  0.00  0.00     0.381 N 
ATOM     19  H   LIG d   1      -2.791  89.622 116.948  0.00  0.00    -0.090 HD
ATOM     20  H   LIG d   1      -2.018  90.781 116.111  0.00  0.00    -0.090 HD
ATOM     21  H   LIG d   1      -2.812  89.590 115.314  0.00  0.00    -0.090 HD
ENDBRANCH   5  18
BRANCH   3  22
ATOM     22  C   LIG d   1      -7.596  90.156 115.730  0.00  0.00     0.382 C 
ATOM     23  O   LIG d   1      -8.070  89.104 116.222  0.00  0.00    -0.241 OA
ATOM     24  O   LIG d   1      -8.120  90.647 114.712  0.00  0.00    -0.241 OA
ENDBRANCH   3  22
TORSDOF 7
ENDMDL
MODEL 4
REMARK VINA RESULT:      -5.3      2.735      5.069
REMARK  7 active torsions:
REMARK  status: ('A' for Active; 'I' for Inactive)
REMARK    1  A    between atoms: C_2  and  C_3 
REMARK    2  A    between atoms: C_3  and  O_6 
REMARK    3  A    between atoms: C_3  and  C_4 
REMARK    4  A    between atoms: C_7  and  O_6 
REMARK    5  A    between atoms: C_9  and  C_10 
REMARK    6  A    between atoms: N_15  and  C_14 
REMARK    7  A    between atoms: N_20  and  C_19 
REMARK       I    between atoms: C_22  and  N_20 
ROOT
ATOM      1  C   LIG d   1      -5.956  93.051 117.840  0.00  0.00     0.161 C 
ATOM      2  C   LIG d   1      -6.545  91.957 117.185  0.00  0.00     0.016 C 
ATOM      3  C   LIG d   1      -5.800  90.921 116.576  0.00  0.00     0.038 C 
ATOM      4  C   LIG d   1      -4.406  90.831 116.713  0.00  0.00     0.028 C 
ATOM      5  C   LIG d   1      -3.731  92.181 116.933  0.00  0.00    -0.047 C 
ATOM      6  C   LIG d   1      -4.440  92.913 118.096  0.00  0.00     0.091 C 
ENDROOT
BRANCH   1   7
ATOM      7  O   LIG d   1      -6.650  93.312 119.076  0.00  0.00    -0.368 OA
BRANCH   7   8
ATOM      8  C   LIG d   1      -6.901  94.706 119.384  0.00  0.00     0.119 C 
BRANCH   8   9
ATOM      9  C   LIG d   1      -8.103  94.758 120.347  0.00  0.00     0.028 C 
ATOM     10  C   LIG d   1      -8.458  93.375 120.918  0.00  0.00     0.006 C 
ENDBRANCH   8   9
BRANCH   8  11
ATOM     11  C   LIG d   1      -7.345  95.480 118.139  0.00  0.00     0.028 C 
ATOM     12  C   LIG d   1      -8.749  96.088 118.285  0.00  0.00     0.006 C 
ENDBRANCH   8  11
ENDBRANCH   7   8
ENDBRANCH   1   7
BRANCH   6  13
ATOM     13  N   LIG d   1      -3.896  94.277 118.323  0.00  0.00    -0.311 N 
ATOM     14  C   LIG d   1      -3.241  94.630 119.427  0.00  0.00     0.210 C 
ATOM     15  C   LIG d   1      -2.782  96.091 119.467  0.00  0.00     0.109 C 
ATOM     16  O   LIG d   1      -2.969  93.864 120.364  0.00  0.00    -0.276 OA
ATOM     17  H   LIG d   1      -4.045  94.953 117.600  0.00  0.00     0.149 HD
ENDBRANCH   6  13
BRANCH   5  18
ATOM     18  N   LIG d   1      -2.302  91.926 117.197  0.00  0.00     0.381 N 
ATOM     19  H   LIG d   1      -1.808  91.843 116.331  0.00  0.00    -0.090 HD
ATOM     20  H   LIG d   1      -2.213  91.059 117.696  0.00  0.00    -0.090 HD
ATOM     21  H   LIG d   1      -1.917  92.670 117.736  0.00  0.00    -0.090 HD
ENDBRANCH   5  18
BRANCH   3  22
ATOM     22  C   LIG d   1      -6.446  89.982 115.786  0.00  0.00     0.382 C 
ATOM     23  O   LIG d   1      -5.955  89.648 114.681  0.00  0.00    -0.241 OA
ATOM     24  O   LIG d   1      -7.536  89.498 116.145  0.00  0.00    -0.241 OA
ENDBRANCH   3  22
TORSDOF 7
ENDMDL
MODEL 5
REMARK VINA RESULT:      -5.2      1.307      1.486
REMARK  7 active torsions:
REMARK  status: ('A' for Active; 'I' for Inactive)
REMARK    1  A    between atoms: C_2  and  C_3 
REMARK    2  A    between atoms: C_3  and  O_6 
REMARK    3  A    between atoms: C_3  and  C_4 
REMARK    4  A    between atoms: C_7  and  O_6 
REMARK    5  A    between atoms: C_9  and  C_10 
REMARK    6  A    between atoms: N_15  and  C_14 
REMARK    7  A    between atoms: N_20  and  C_19 
REMARK       I    between atoms: C_22  and  N_20 
ROOT
ATOM      1  C   LIG d   1      -3.316  90.173 116.974  0.00  0.00     0.161 C 
ATOM      2  C   LIG d   1      -4.284  90.022 115.968  0.00  0.00     0.016 C 
ATOM      3  C   LIG d   1      -5.241  91.014 115.653  0.00  0.00     0.038 C 
ATOM      4  C   LIG d   1      -5.199  92.294 116.226  0.00  0.00     0.028 C 
ATOM      5  C   LIG d   1      -4.553  92.317 117.608  0.00  0.00    -0.047 C 
ATOM      6  C   LIG d   1      -3.183  91.605 117.534  0.00  0.00     0.091 C 
ENDROOT
BRANCH   1   7
ATOM      7  O   LIG d   1      -2.040  89.701 116.500  0.00  0.00    -0.368 OA
BRANCH   7   8
ATOM      8  C   LIG d   1      -1.696  88.337 116.847  0.00  0.00     0.119 C 
BRANCH   8   9
ATOM      9  C   LIG d   1      -2.016  88.145 118.342  0.00  0.00     0.028 C 
ATOM     10  C   LIG d   1      -1.288  86.933 118.947  0.00  0.00     0.006 C 
ENDBRANCH   8   9
BRANCH   8  11
ATOM     11  C   LIG d   1      -0.189  88.092 116.720  0.00  0.00     0.028 C 
ATOM     12  C   LIG d   1       0.156  87.045 115.649  0.00  0.00     0.006 C 
ENDBRANCH   8  11
ENDBRANCH   7   8
ENDBRANCH   1   7
BRANCH   6  13
ATOM     13  N   LIG d   1      -2.522  91.509 118.862  0.00  0.00    -0.311 N 
ATOM     14  C   LIG d   1      -1.259  91.872 119.079  0.00  0.00     0.210 C 
ATOM     15  C   LIG d   1      -0.768  91.673 120.517  0.00  0.00     0.109 C 
ATOM     16  O   LIG d   1      -0.509  92.370 118.226  0.00  0.00    -0.276 OA
ATOM     17  H   LIG d   1      -3.068  91.145 119.618  0.00  0.00     0.149 HD
ENDBRANCH   6  13
BRANCH   5  18
ATOM     18  N   LIG d   1      -4.450  93.728 118.027  0.00  0.00     0.381 N 
ATOM     19  H   LIG d   1      -5.359  94.084 118.246  0.00  0.00    -0.090 HD
ATOM     20  H   LIG d   1      -4.075  94.266 117.267  0.00  0.00    -0.090 HD
ATOM     21  H   LIG d   1      -3.856  93.804 118.823  0.00  0.00    -0.090 HD
ENDBRANCH   5  18
BRANCH   3  22
ATOM     22  C   LIG d   1      -6.280  90.716 114.784  0.00  0.00     0.382 C 
ATOM     23  O   LIG d   1      -6.801  91.625 114.094  0.00  0.00    -0.241 OA
ATOM     24  O   LIG d   1      -6.733  89.557 114.715  0.00  0.00    -0.241 OA
ENDBRANCH   3  22
TORSDOF 7
ENDMDL
MODEL 6
REMARK VINA RESULT:      -5.1      1.688      4.682
REMARK  7 active torsions:
REMARK  status: ('A' for Active; 'I' for Inactive)
REMARK    1  A    between atoms: C_2  and  C_3 
REMARK    2  A    between atoms: C_3  and  O_6 
REMARK    3  A    between atoms: C_3  and  C_4 
REMARK    4  A    between atoms: C_7  and  O_6 
REMARK    5  A    between atoms: C_9  and  C_10 
REMARK    6  A    between atoms: N_15  and  C_14 
REMARK    7  A    between atoms: N_20  and  C_19 
REMARK       I    between atoms: C_22  and  N_20 
ROOT
ATOM      1  C   LIG d   1      -3.968  91.627 116.750  0.00  0.00     0.161 C 
ATOM      2  C   LIG d   1      -3.102  92.505 117.424  0.00  0.00     0.016 C 
ATOM      3  C   LIG d   1      -3.496  93.285 118.535  0.00  0.00     0.038 C 
ATOM      4  C   LIG d   1      -4.749  93.128 119.145  0.00  0.00     0.028 C 
ATOM      5  C   LIG d   1      -5.827  92.623 118.192  0.00  0.00    -0.047 C 
ATOM      6  C   LIG d   1      -5.306  91.360 117.469  0.00  0.00     0.091 C 
ENDROOT
BRANCH   1   7
ATOM      7  O   LIG d   1      -3.289  90.386 116.475  0.00  0.00    -0.368 OA
BRANCH   7   8
ATOM      8  C   LIG d   1      -2.257  90.002 117.417  0.00  0.00     0.119 C 
BRANCH   8   9
ATOM      9  C   LIG d   1      -1.080  89.428 116.605  0.00  0.00     0.028 C 
ATOM     10  C   LIG d   1       0.126  90.382 116.565  0.00  0.00     0.006 C 
ENDBRANCH   8   9
BRANCH   8  11
ATOM     11  C   LIG d   1      -2.724  88.856 118.320  0.00  0.00     0.028 C 
ATOM     12  C   LIG d   1      -1.648  87.776 118.516  0.00  0.00     0.006 C 
ENDBRANCH   8  11
ENDBRANCH   7   8
ENDBRANCH   1   7
BRANCH   6  13
ATOM     13  N   LIG d   1      -6.267  90.849 116.457  0.00  0.00    -0.311 N 
ATOM     14  C   LIG d   1      -6.516  91.469 115.305  0.00  0.00     0.210 C 
ATOM     15  C   LIG d   1      -7.556  90.783 114.413  0.00  0.00     0.109 C 
ATOM     16  O   LIG d   1      -5.951  92.505 114.922  0.00  0.00    -0.276 OA
ATOM     17  H   LIG d   1      -6.747  89.997 116.672  0.00  0.00     0.149 HD
ENDBRANCH   6  13
BRANCH   5  18
ATOM     18  N   LIG d   1      -7.044  92.373 118.988  0.00  0.00     0.381 N 
ATOM     19  H   LIG d   1      -7.344  93.222 119.423  0.00  0.00    -0.090 HD
ATOM     20  H   LIG d   1      -6.829  91.707 119.709  0.00  0.00    -0.090 HD
ATOM     21  H   LIG d   1      -7.767  92.017 118.402  0.00  0.00    -0.090 HD
ENDBRANCH   5  18
BRANCH   3  22
ATOM     22  C   LIG d   1      -2.644  94.265 119.022  0.00  0.00     0.382 C 
ATOM     23  O   LIG d   1      -1.703  94.689 118.309  0.00  0.00    -0.241 OA
ATOM     24  O   LIG d   1      -2.779  94.699 120.182  0.00  0.00    -0.241 OA
ENDBRANCH   3  22
TORSDOF 7
ENDMDL
MODEL 7
REMARK VINA RESULT:      -5.0     27.400     29.465
REMARK  7 active torsions:
REMARK  status: ('A' for Active; 'I' for Inactive)
REMARK    1  A    between atoms: C_2  and  C_3 
REMARK    2  A    between atoms: C_3  and  O_6 
REMARK    3  A    between atoms: C_3  and  C_4 
REMARK    4  A    between atoms: C_7  and  O_6 
REMARK    5  A    between atoms: C_9  and  C_10 
REMARK    6  A    between atoms: N_15  and  C_14 
REMARK    7  A    between atoms: N_20  and  C_19 
REMARK       I    between atoms: C_22  and  N_20 
ROOT
ATOM      1  C   LIG d   1     -16.166  64.667 116.281  0.00  0.00     0.161 C 
ATOM      2  C   LIG d   1     -16.109  66.035 115.964  0.00  0.00     0.016 C 
ATOM      3  C   LIG d   1     -15.504  67.002 116.799  0.00  0.00     0.038 C 
ATOM      4  C   LIG d   1     -14.778  66.643 117.944  0.00  0.00     0.028 C 
ATOM      5  C   LIG d   1     -15.239  65.331 118.568  0.00  0.00    -0.047 C 
ATOM      6  C   LIG d   1     -15.281  64.242 117.472  0.00  0.00     0.091 C 
ENDROOT
BRANCH   1   7
ATOM      7  O   LIG d   1     -15.848  63.882 115.115  0.00  0.00    -0.368 OA
BRANCH   7   8
ATOM      8  C   LIG d   1     -16.974  63.306 114.408  0.00  0.00     0.119 C 
BRANCH   8   9
ATOM      9  C   LIG d   1     -17.574  64.410 113.516  0.00  0.00     0.028 C 
ATOM     10  C   LIG d   1     -19.111  64.434 113.566  0.00  0.00     0.006 C 
ENDBRANCH   8   9
BRANCH   8  11
ATOM     11  C   LIG d   1     -18.095  62.911 115.374  0.00  0.00     0.028 C 
ATOM     12  C   LIG d   1     -18.145  61.398 115.641  0.00  0.00     0.006 C 
ENDBRANCH   8  11
ENDBRANCH   7   8
ENDBRANCH   1   7
BRANCH   6  13
ATOM     13  N   LIG d   1     -15.804  62.946 117.979  0.00  0.00    -0.311 N 
ATOM     14  C   LIG d   1     -15.042  61.868 118.157  0.00  0.00     0.210 C 
ATOM     15  C   LIG d   1     -15.784  60.630 118.670  0.00  0.00     0.109 C 
ATOM     16  O   LIG d   1     -13.817  61.828 117.968  0.00  0.00    -0.276 OA
ATOM     17  H   LIG d   1     -16.782  62.899 118.188  0.00  0.00     0.149 HD
ENDBRANCH   6  13
BRANCH   5  18
ATOM     18  N   LIG d   1     -14.310  65.009 119.668  0.00  0.00     0.381 N 
ATOM     19  H   LIG d   1     -14.786  65.079 120.545  0.00  0.00    -0.090 HD
ATOM     20  H   LIG d   1     -13.557  65.674 119.663  0.00  0.00    -0.090 HD
ATOM     21  H   LIG d   1     -13.949  64.087 119.550  0.00  0.00    -0.090 HD
ENDBRANCH   5  18
BRANCH   3  22
ATOM     22  C   LIG d   1     -15.658  68.350 116.512  0.00  0.00     0.382 C 
ATOM     23  O   LIG d   1     -15.114  68.840 115.493  0.00  0.00    -0.241 OA
ATOM     24  O   LIG d   1     -16.296  69.092 117.284  0.00  0.00    -0.241 OA
ENDBRANCH   3  22
TORSDOF 7
ENDMDL
MODEL 8
REMARK VINA RESULT:      -5.0     13.145     15.497
REMARK  7 active torsions:
REMARK  status: ('A' for Active; 'I' for Inactive)
REMARK    1  A    between atoms: C_2  and  C_3 
REMARK    2  A    between atoms: C_3  and  O_6 
REMARK    3  A    between atoms: C_3  and  C_4 
REMARK    4  A    between atoms: C_7  and  O_6 
REMARK    5  A    between atoms: C_9  and  C_10 
REMARK    6  A    between atoms: N_15  and  C_14 
REMARK    7  A    between atoms: N_20  and  C_19 
REMARK       I    between atoms: C_22  and  N_20 
ROOT
ATOM      1  C   LIG d   1      -1.453  76.582 118.083  0.00  0.00     0.161 C 
ATOM      2  C   LIG d   1      -2.565  76.868 117.274  0.00  0.00     0.016 C 
ATOM      3  C   LIG d   1      -2.866  76.160 116.087  0.00  0.00     0.038 C 
ATOM      4  C   LIG d   1      -2.155  75.012 115.708  0.00  0.00     0.028 C 
ATOM      5  C   LIG d   1      -0.720  74.991 116.223  0.00  0.00    -0.047 C 
ATOM      6  C   LIG d   1      -0.729  75.262 117.745  0.00  0.00     0.091 C 
ENDROOT
BRANCH   1   7
ATOM      7  O   LIG d   1      -1.841  76.599 119.471  0.00  0.00    -0.368 OA
BRANCH   7   8
ATOM      8  C   LIG d   1      -1.337  77.704 120.261  0.00  0.00     0.119 C 
BRANCH   8   9
ATOM      9  C   LIG d   1      -2.532  78.617 120.596  0.00  0.00     0.028 C 
ATOM     10  C   LIG d   1      -2.655  79.804 119.624  0.00  0.00     0.006 C 
ENDBRANCH   8   9
BRANCH   8  11
ATOM     11  C   LIG d   1      -0.376  78.577 119.448  0.00  0.00     0.028 C 
ATOM     12  C   LIG d   1       1.053  78.576 120.014  0.00  0.00     0.006 C 
ENDBRANCH   8  11
ENDBRANCH   7   8
ENDBRANCH   1   7
BRANCH   6  13
ATOM     13  N   LIG d   1       0.642  75.342 118.315  0.00  0.00    -0.311 N 
ATOM     14  C   LIG d   1       0.996  74.756 119.457  0.00  0.00     0.210 C 
ATOM     15  C   LIG d   1       2.453  74.981 119.874  0.00  0.00     0.109 C 
ATOM     16  O   LIG d   1       0.251  74.045 120.148  0.00  0.00    -0.276 OA
ATOM     17  H   LIG d   1       1.318  75.874 117.803  0.00  0.00     0.149 HD
ENDBRANCH   6  13
BRANCH   5  18
ATOM     18  N   LIG d   1      -0.140  73.680 115.873  0.00  0.00     0.381 N 
ATOM     19  H   LIG d   1      -0.852  72.978 115.893  0.00  0.00    -0.090 HD
ATOM     20  H   LIG d   1       0.558  73.441 116.556  0.00  0.00    -0.090 HD
ATOM     21  H   LIG d   1       0.272  73.721 114.967  0.00  0.00    -0.090 HD
ENDBRANCH   5  18
BRANCH   3  22
ATOM     22  C   LIG d   1      -3.865  76.624 115.245  0.00  0.00     0.382 C 
ATOM     23  O   LIG d   1      -3.657  76.703 114.010  0.00  0.00    -0.241 OA
ATOM     24  O   LIG d   1      -4.956  77.006 115.710  0.00  0.00    -0.241 OA
ENDBRANCH   3  22
TORSDOF 7
ENDMDL
MODEL 9
REMARK VINA RESULT:      -4.9      2.886      6.667
REMARK  7 active torsions:
REMARK  status: ('A' for Active; 'I' for Inactive)
REMARK    1  A    between atoms: C_2  and  C_3 
REMARK    2  A    between atoms: C_3  and  O_6 
REMARK    3  A    between atoms: C_3  and  C_4 
REMARK    4  A    between atoms: C_7  and  O_6 
REMARK    5  A    between atoms: C_9  and  C_10 
REMARK    6  A    between atoms: N_15  and  C_14 
REMARK    7  A    between atoms: N_20  and  C_19 
REMARK       I    between atoms: C_22  and  N_20 
ROOT
ATOM      1  C   LIG d   1      -6.090  92.172 118.999  0.00  0.00     0.161 C 
ATOM      2  C   LIG d   1      -4.975  92.739 119.638  0.00  0.00     0.016 C 
ATOM      3  C   LIG d   1      -3.659  92.654 119.128  0.00  0.00     0.038 C 
ATOM      4  C   LIG d   1      -3.390  92.123 117.858  0.00  0.00     0.028 C 
ATOM      5  C   LIG d   1      -4.414  91.088 117.404  0.00  0.00    -0.047 C 
ATOM      6  C   LIG d   1      -5.832  91.685 117.558  0.00  0.00     0.091 C 
ENDROOT
BRANCH   1   7
ATOM      7  O   LIG d   1      -7.192  93.101 119.024  0.00  0.00    -0.368 OA
BRANCH   7   8
ATOM      8  C   LIG d   1      -6.869  94.464 119.395  0.00  0.00     0.119 C 
BRANCH   8   9
ATOM      9  C   LIG d   1      -7.897  94.912 120.451  0.00  0.00     0.028 C 
ATOM     10  C   LIG d   1      -8.643  93.726 121.085  0.00  0.00     0.006 C 
ENDBRANCH   8   9
BRANCH   8  11
ATOM     11  C   LIG d   1      -7.056  95.422 118.215  0.00  0.00     0.028 C 
ATOM     12  C   LIG d   1      -8.452  96.064 118.184  0.00  0.00     0.006 C 
ENDBRANCH   8  11
ENDBRANCH   7   8
ENDBRANCH   1   7
BRANCH   6  13
ATOM     13  N   LIG d   1      -6.898  90.708 117.215  0.00  0.00    -0.311 N 
ATOM     14  C   LIG d   1      -7.391  90.562 115.987  0.00  0.00     0.210 C 
ATOM     15  C   LIG d   1      -8.499  89.512 115.855  0.00  0.00     0.109 C 
ATOM     16  O   LIG d   1      -6.993  91.178 114.987  0.00  0.00    -0.276 OA
ATOM     17  H   LIG d   1      -7.257  90.144 117.961  0.00  0.00     0.149 HD
ENDBRANCH   6  13
BRANCH   5  18
ATOM     18  N   LIG d   1      -4.090  90.720 116.013  0.00  0.00     0.381 N 
ATOM     19  H   LIG d   1      -3.544  91.444 115.590  0.00  0.00    -0.090 HD
ATOM     20  H   LIG d   1      -4.945  90.625 115.494  0.00  0.00    -0.090 HD
ATOM     21  H   LIG d   1      -3.586  89.861 115.996  0.00  0.00    -0.090 HD
ENDBRANCH   5  18
BRANCH   3  22
ATOM     22  C   LIG d   1      -2.591  93.069 119.909  0.00  0.00     0.382 C 
ATOM     23  O   LIG d   1      -1.547  93.500 119.364  0.00  0.00    -0.241 OA
ATOM     24  O   LIG d   1      -2.642  92.975 121.150  0.00  0.00    -0.241 OA
ENDBRANCH   3  22
TORSDOF 7
ENDMDL
