MODEL 1
REMARK VINA RESULT:      -6.0      0.000      0.000
REMARK  7 active torsions:
REMARK  status: ('A' for Active; 'I' for Inactive)
REMARK    1  A    between atoms: C_2  and  C_3 
REMARK    2  A    between atoms: C_3  and  O_6 
REMARK    3  A    between atoms: C_3  and  C_4 
REMARK    4  A    between atoms: C_7  and  O_6 
REMARK    5  A    between atoms: C_9  and  C_10 
REMARK    6  A    between atoms: N_15  and  C_14 
REMARK    7  A    between atoms: N_20  and  C_19 
REMARK       I    between atoms: C_22  and  N_20 
ROOT
ATOM      1  C   LIG d   1      -4.527  90.976 116.754  0.00  0.00     0.161 C 
ATOM      2  C   LIG d   1      -3.376  90.173 116.712  0.00  0.00     0.016 C 
ATOM      3  C   LIG d   1      -2.210  90.445 117.464  0.00  0.00     0.038 C 
ATOM      4  C   LIG d   1      -2.172  91.460 118.432  0.00  0.00     0.028 C 
ATOM      5  C   LIG d   1      -3.136  92.606 118.145  0.00  0.00    -0.047 C 
ATOM      6  C   LIG d   1      -4.544  92.024 117.886  0.00  0.00     0.091 C 
ENDROOT
BRANCH   1   7
ATOM      7  O   LIG d   1      -5.702  90.143 116.825  0.00  0.00    -0.368 OA
BRANCH   7   8
ATOM      8  C   LIG d   1      -6.485  90.041 115.610  0.00  0.00     0.119 C 
BRANCH   8   9
ATOM      9  C   LIG d   1      -6.039  91.182 114.675  0.00  0.00     0.028 C 
ATOM     10  C   LIG d   1      -7.167  92.192 114.403  0.00  0.00     0.006 C 
ENDBRANCH   8   9
BRANCH   8  11
ATOM     11  C   LIG d   1      -7.970  90.296 115.882  0.00  0.00     0.028 C 
ATOM     12  C   LIG d   1      -8.700  89.055 116.419  0.00  0.00     0.006 C 
ENDBRANCH   8  11
ENDBRANCH   7   8
ENDBRANCH   1   7
BRANCH   6  13
ATOM     13  N   LIG d   1      -5.531  93.072 117.515  0.00  0.00    -0.311 N 
ATOM     14  C   LIG d   1      -6.749  93.154 118.048  0.00  0.00     0.210 C 
ATOM     15  C   LIG d   1      -7.614  94.298 117.511  0.00  0.00     0.109 C 
ATOM     16  O   LIG d   1      -7.183  92.408 118.939  0.00  0.00    -0.276 OA
ATOM     17  H   LIG d   1      -5.250  93.738 116.822  0.00  0.00     0.149 HD
ENDBRANCH   6  13
BRANCH   5  18
ATOM     18  N   LIG d   1      -3.093  93.524 119.299  0.00  0.00     0.381 N 
ATOM     19  H   LIG d   1      -3.429  93.056 120.117  0.00  0.00    -0.090 HD
ATOM     20  H   LIG d   1      -3.694  94.307 119.114  0.00  0.00    -0.090 HD
ATOM     21  H   LIG d   1      -2.160  93.840 119.448  0.00  0.00    -0.090 HD
ENDBRANCH   5  18
BRANCH   3  22
ATOM     22  C   LIG d   1      -1.052  89.720 117.224  0.00  0.00     0.382 C 
ATOM     23  O   LIG d   1      -0.042  90.293 116.750  0.00  0.00    -0.241 OA
ATOM     24  O   LIG d   1      -1.020  88.493 117.433  0.00  0.00    -0.241 OA
ENDBRANCH   3  22
TORSDOF 7
ENDMDL
MODEL 2
REMARK VINA RESULT:      -5.4      2.351      6.147
REMARK  7 active torsions:
REMARK  status: ('A' for Active; 'I' for Inactive)
REMARK    1  A    between atoms: C_2  and  C_3 
REMARK    2  A    between atoms: C_3  and  O_6 
REMARK    3  A    between atoms: C_3  and  C_4 
REMARK    4  A    between atoms: C_7  and  O_6 
REMARK    5  A    between atoms: C_9  and  C_10 
REMARK    6  A    between atoms: N_15  and  C_14 
REMARK    7  A    between atoms: N_20  and  C_19 
REMARK       I    between atoms: C_22  and  N_20 
ROOT
ATOM      1  C   LIG d   1      -4.127  91.743 117.455  0.00  0.00     0.161 C 
ATOM      2  C   LIG d   1      -5.379  92.348 117.249  0.00  0.00     0.016 C 
ATOM      3  C   LIG d   1      -6.316  91.891 116.294  0.00  0.00     0.038 C 
ATOM      4  C   LIG d   1      -6.126  90.698 115.580  0.00  0.00     0.028 C 
ATOM      5  C   LIG d   1      -4.657  90.333 115.390  0.00  0.00    -0.047 C 
ATOM      6  C   LIG d   1      -3.948  90.375 116.763  0.00  0.00     0.091 C 
ENDROOT
BRANCH   1   7
ATOM      7  O   LIG d   1      -3.866  91.628 118.867  0.00  0.00    -0.368 OA
BRANCH   7   8
ATOM      8  C   LIG d   1      -2.721  92.362 119.366  0.00  0.00     0.119 C 
BRANCH   8   9
ATOM      9  C   LIG d   1      -3.231  93.344 120.438  0.00  0.00     0.028 C 
ATOM     10  C   LIG d   1      -3.845  94.615 119.826  0.00  0.00     0.006 C 
ENDBRANCH   8   9
BRANCH   8  11
ATOM     11  C   LIG d   1      -2.103  93.240 118.273  0.00  0.00     0.028 C 
ATOM     12  C   LIG d   1      -0.614  92.940 118.038  0.00  0.00     0.006 C 
ENDBRANCH   8  11
ENDBRANCH   7   8
ENDBRANCH   1   7
BRANCH   6  13
ATOM     13  N   LIG d   1      -2.489  90.113 116.656  0.00  0.00    -0.311 N 
ATOM     14  C   LIG d   1      -1.846  89.227 117.415  0.00  0.00     0.210 C 
ATOM     15  C   LIG d   1      -0.340  89.127 117.155  0.00  0.00     0.109 C 
ATOM     16  O   LIG d   1      -2.386  88.491 118.255  0.00  0.00    -0.276 OA
ATOM     17  H   LIG d   1      -1.979  90.644 115.978  0.00  0.00     0.149 HD
ENDBRANCH   6  13
BRANCH   5  18
ATOM     18  N   LIG d   1      -4.607  89.004 114.754  0.00  0.00     0.381 N 
ATOM     19  H   LIG d   1      -4.468  89.105 113.768  0.00  0.00    -0.090 HD
ATOM     20  H   LIG d   1      -5.485  88.539 114.903  0.00  0.00    -0.090 HD
ATOM     21  H   LIG d   1      -3.867  88.465 115.147  0.00  0.00    -0.090 HD
ENDBRANCH   5  18
BRANCH   3  22
ATOM     22  C   LIG d   1      -7.441  92.652 116.017  0.00  0.00     0.382 C 
ATOM     23  O   LIG d   1      -7.783  93.573 116.797  0.00  0.00    -0.241 OA
ATOM     24  O   LIG d   1      -8.144  92.401 115.020  0.00  0.00    -0.241 OA
ENDBRANCH   3  22
TORSDOF 7
ENDMDL
MODEL 3
REMARK VINA RESULT:      -5.4      2.719      4.882
REMARK  7 active torsions:
REMARK  status: ('A' for Active; 'I' for Inactive)
REMARK    1  A    between atoms: C_2  and  C_3 
REMARK    2  A    between atoms: C_3  and  O_6 
REMARK    3  A    between atoms: C_3  and  C_4 
REMARK    4  A    between atoms: C_7  and  O_6 
REMARK    5  A    between atoms: C_9  and  C_10 
REMARK    6  A    between atoms: N_15  and  C_14 
REMARK    7  A    between atoms: N_20  and  C_19 
REMARK       I    between atoms: C_22  and  N_20 
ROOT
ATOM      1  C   LIG d   1      -6.485  92.477 118.440  0.00  0.00     0.161 C 
ATOM      2  C   LIG d   1      -5.348  93.213 118.810  0.00  0.00     0.016 C 
ATOM      3  C   LIG d   1      -4.061  92.980 118.272  0.00  0.00     0.038 C 
ATOM      4  C   LIG d   1      -3.852  92.089 117.209  0.00  0.00     0.028 C 
ATOM      5  C   LIG d   1      -4.879  90.963 117.151  0.00  0.00    -0.047 C 
ATOM      6  C   LIG d   1      -6.298  91.575 117.201  0.00  0.00     0.091 C 
ENDROOT
BRANCH   1   7
ATOM      7  O   LIG d   1      -7.602  93.367 118.247  0.00  0.00    -0.368 OA
BRANCH   7   8
ATOM      8  C   LIG d   1      -7.496  94.668 118.876  0.00  0.00     0.119 C 
BRANCH   8   9
ATOM      9  C   LIG d   1      -8.424  94.664 120.107  0.00  0.00     0.028 C 
ATOM     10  C   LIG d   1      -9.889  94.954 119.739  0.00  0.00     0.006 C 
ENDBRANCH   8   9
BRANCH   8  11
ATOM     11  C   LIG d   1      -8.037  95.773 117.964  0.00  0.00     0.028 C 
ATOM     12  C   LIG d   1      -7.437  97.152 118.280  0.00  0.00     0.006 C 
ENDBRANCH   8  11
ENDBRANCH   7   8
ENDBRANCH   1   7
BRANCH   6  13
ATOM     13  N   LIG d   1      -7.362  90.538 117.234  0.00  0.00    -0.311 N 
ATOM     14  C   LIG d   1      -7.892  89.997 116.139  0.00  0.00     0.210 C 
ATOM     15  C   LIG d   1      -8.990  88.960 116.397  0.00  0.00     0.109 C 
ATOM     16  O   LIG d   1      -7.535  90.253 114.980  0.00  0.00    -0.276 OA
ATOM     17  H   LIG d   1      -7.689  90.249 118.135  0.00  0.00     0.149 HD
ENDBRANCH   6  13
BRANCH   5  18
ATOM     18  N   LIG d   1      -4.626  90.191 115.920  0.00  0.00     0.381 N 
ATOM     19  H   LIG d   1      -4.284  89.281 116.156  0.00  0.00    -0.090 HD
ATOM     20  H   LIG d   1      -3.921  90.662 115.380  0.00  0.00    -0.090 HD
ATOM     21  H   LIG d   1      -5.464  90.112 115.389  0.00  0.00    -0.090 HD
ENDBRANCH   5  18
BRANCH   3  22
ATOM     22  C   LIG d   1      -2.959  93.615 118.825  0.00  0.00     0.382 C 
ATOM     23  O   LIG d   1      -2.393  94.545 118.202  0.00  0.00    -0.241 OA
ATOM     24  O   LIG d   1      -2.498  93.239 119.920  0.00  0.00    -0.241 OA
ENDBRANCH   3  22
TORSDOF 7
ENDMDL
MODEL 4
REMARK VINA RESULT:      -5.3     32.891     34.429
REMARK  7 active torsions:
REMARK  status: ('A' for Active; 'I' for Inactive)
REMARK    1  A    between atoms: C_2  and  C_3 
REMARK    2  A    between atoms: C_3  and  O_6 
REMARK    3  A    between atoms: C_3  and  C_4 
REMARK    4  A    between atoms: C_7  and  O_6 
REMARK    5  A    between atoms: C_9  and  C_10 
REMARK    6  A    between atoms: N_15  and  C_14 
REMARK    7  A    between atoms: N_20  and  C_19 
REMARK       I    between atoms: C_22  and  N_20 
ROOT
ATOM      1  C   LIG d   1       1.185  58.483 117.580  0.00  0.00     0.161 C 
ATOM      2  C   LIG d   1      -0.161  58.180 117.316  0.00  0.00     0.016 C 
ATOM      3  C   LIG d   1      -0.716  58.172 116.015  0.00  0.00     0.038 C 
ATOM      4  C   LIG d   1       0.079  58.320 114.869  0.00  0.00     0.028 C 
ATOM      5  C   LIG d   1       1.349  59.128 115.113  0.00  0.00    -0.047 C 
ATOM      6  C   LIG d   1       2.092  58.538 116.333  0.00  0.00     0.091 C 
ENDROOT
BRANCH   1   7
ATOM      7  O   LIG d   1       1.715  57.553 118.545  0.00  0.00    -0.368 OA
BRANCH   7   8
ATOM      8  C   LIG d   1       1.108  56.237 118.562  0.00  0.00     0.119 C 
BRANCH   8   9
ATOM      9  C   LIG d   1       0.977  55.806 120.036  0.00  0.00     0.028 C 
ATOM     10  C   LIG d   1       0.929  57.007 120.996  0.00  0.00     0.006 C 
ENDBRANCH   8   9
BRANCH   8  11
ATOM     11  C   LIG d   1       2.022  55.193 117.914  0.00  0.00     0.028 C 
ATOM     12  C   LIG d   1       1.609  54.851 116.473  0.00  0.00     0.006 C 
ENDBRANCH   8  11
ENDBRANCH   7   8
ENDBRANCH   1   7
BRANCH   6  13
ATOM     13  N   LIG d   1       3.303  59.321 116.693  0.00  0.00    -0.311 N 
ATOM     14  C   LIG d   1       4.438  58.765 117.112  0.00  0.00     0.210 C 
ATOM     15  C   LIG d   1       5.558  59.755 117.449  0.00  0.00     0.109 C 
ATOM     16  O   LIG d   1       4.635  57.544 117.207  0.00  0.00    -0.276 OA
ATOM     17  H   LIG d   1       3.242  60.318 116.615  0.00  0.00     0.149 HD
ENDBRANCH   6  13
BRANCH   5  18
ATOM     18  N   LIG d   1       2.148  59.087 113.874  0.00  0.00     0.381 N 
ATOM     19  H   LIG d   1       1.682  59.600 113.153  0.00  0.00    -0.090 HD
ATOM     20  H   LIG d   1       2.236  58.132 113.575  0.00  0.00    -0.090 HD
ATOM     21  H   LIG d   1       3.051  59.476 114.037  0.00  0.00    -0.090 HD
ENDBRANCH   5  18
BRANCH   3  22
ATOM     22  C   LIG d   1      -2.088  58.054 115.855  0.00  0.00     0.382 C 
ATOM     23  O   LIG d   1      -2.854  58.919 116.346  0.00  0.00    -0.241 OA
ATOM     24  O   LIG d   1      -2.573  57.071 115.263  0.00  0.00    -0.241 OA
ENDBRANCH   3  22
TORSDOF 7
ENDMDL
MODEL 5
REMARK VINA RESULT:      -5.3     33.231     35.093
REMARK  7 active torsions:
REMARK  status: ('A' for Active; 'I' for Inactive)
REMARK    1  A    between atoms: C_2  and  C_3 
REMARK    2  A    between atoms: C_3  and  O_6 
REMARK    3  A    between atoms: C_3  and  C_4 
REMARK    4  A    between atoms: C_7  and  O_6 
REMARK    5  A    between atoms: C_9  and  C_10 
REMARK    6  A    between atoms: N_15  and  C_14 
REMARK    7  A    between atoms: N_20  and  C_19 
REMARK       I    between atoms: C_22  and  N_20 
ROOT
ATOM      1  C   LIG d   1       0.742  57.557 118.167  0.00  0.00     0.161 C 
ATOM      2  C   LIG d   1      -0.376  57.496 117.319  0.00  0.00     0.016 C 
ATOM      3  C   LIG d   1      -0.346  57.896 115.963  0.00  0.00     0.038 C 
ATOM      4  C   LIG d   1       0.850  58.245 115.319  0.00  0.00     0.028 C 
ATOM      5  C   LIG d   1       1.907  58.803 116.265  0.00  0.00    -0.047 C 
ATOM      6  C   LIG d   1       2.082  57.829 117.453  0.00  0.00     0.091 C 
ENDROOT
BRANCH   1   7
ATOM      7  O   LIG d   1       0.828  56.349 118.950  0.00  0.00    -0.368 OA
BRANCH   7   8
ATOM      8  C   LIG d   1       1.602  55.269 118.372  0.00  0.00     0.119 C 
BRANCH   8   9
ATOM      9  C   LIG d   1       0.624  54.125 118.040  0.00  0.00     0.028 C 
ATOM     10  C   LIG d   1       0.865  53.535 116.641  0.00  0.00     0.006 C 
ENDBRANCH   8   9
BRANCH   8  11
ATOM     11  C   LIG d   1       2.584  54.681 119.389  0.00  0.00     0.028 C 
ATOM     12  C   LIG d   1       2.618  55.468 120.709  0.00  0.00     0.006 C 
ENDBRANCH   8  11
ENDBRANCH   7   8
ENDBRANCH   1   7
BRANCH   6  13
ATOM     13  N   LIG d   1       3.038  58.341 118.470  0.00  0.00    -0.311 N 
ATOM     14  C   LIG d   1       4.317  57.974 118.524  0.00  0.00     0.210 C 
ATOM     15  C   LIG d   1       5.123  58.605 119.663  0.00  0.00     0.109 C 
ATOM     16  O   LIG d   1       4.868  57.209 117.718  0.00  0.00    -0.276 OA
ATOM     17  H   LIG d   1       2.682  58.990 119.144  0.00  0.00     0.149 HD
ENDBRANCH   6  13
BRANCH   5  18
ATOM     18  N   LIG d   1       3.146  58.995 115.487  0.00  0.00     0.381 N 
ATOM     19  H   LIG d   1       3.534  58.105 115.245  0.00  0.00    -0.090 HD
ATOM     20  H   LIG d   1       3.813  59.487 116.055  0.00  0.00    -0.090 HD
ATOM     21  H   LIG d   1       2.952  59.517 114.661  0.00  0.00    -0.090 HD
ENDBRANCH   5  18
BRANCH   3  22
ATOM     22  C   LIG d   1      -1.531  57.988 115.248  0.00  0.00     0.382 C 
ATOM     23  O   LIG d   1      -1.699  58.926 114.432  0.00  0.00    -0.241 OA
ATOM     24  O   LIG d   1      -2.450  57.171 115.440  0.00  0.00    -0.241 OA
ENDBRANCH   3  22
TORSDOF 7
ENDMDL
MODEL 6
REMARK VINA RESULT:      -5.2      2.285      4.887
REMARK  7 active torsions:
REMARK  status: ('A' for Active; 'I' for Inactive)
REMARK    1  A    between atoms: C_2  and  C_3 
REMARK    2  A    between atoms: C_3  and  O_6 
REMARK    3  A    between atoms: C_3  and  C_4 
REMARK    4  A    between atoms: C_7  and  O_6 
REMARK    5  A    between atoms: C_9  and  C_10 
REMARK    6  A    between atoms: N_15  and  C_14 
REMARK    7  A    between atoms: N_20  and  C_19 
REMARK       I    between atoms: C_22  and  N_20 
ROOT
ATOM      1  C   LIG d   1      -4.947  91.871 118.485  0.00  0.00     0.161 C 
ATOM      2  C   LIG d   1      -4.907  90.995 117.387  0.00  0.00     0.016 C 
ATOM      3  C   LIG d   1      -5.753  91.120 116.261  0.00  0.00     0.038 C 
ATOM      4  C   LIG d   1      -6.599  92.226 116.088  0.00  0.00     0.028 C 
ATOM      5  C   LIG d   1      -7.038  92.864 117.402  0.00  0.00    -0.047 C 
ATOM      6  C   LIG d   1      -5.786  93.147 118.265  0.00  0.00     0.091 C 
ENDROOT
BRANCH   1   7
ATOM      7  O   LIG d   1      -3.606  92.216 118.884  0.00  0.00    -0.368 OA
BRANCH   7   8
ATOM      8  C   LIG d   1      -2.625  92.293 117.821  0.00  0.00     0.119 C 
BRANCH   8   9
ATOM      9  C   LIG d   1      -1.438  91.394 118.221  0.00  0.00     0.028 C 
ATOM     10  C   LIG d   1      -1.265  90.195 117.274  0.00  0.00     0.006 C 
ENDBRANCH   8   9
BRANCH   8  11
ATOM     11  C   LIG d   1      -2.042  93.704 117.701  0.00  0.00     0.028 C 
ATOM     12  C   LIG d   1      -2.461  94.622 118.861  0.00  0.00     0.006 C 
ENDBRANCH   8  11
ENDBRANCH   7   8
ENDBRANCH   1   7
BRANCH   6  13
ATOM     13  N   LIG d   1      -6.132  93.694 119.602  0.00  0.00    -0.311 N 
ATOM     14  C   LIG d   1      -6.250  94.997 119.853  0.00  0.00     0.210 C 
ATOM     15  C   LIG d   1      -6.593  95.347 121.304  0.00  0.00     0.109 C 
ATOM     16  O   LIG d   1      -6.134  95.894 119.005  0.00  0.00    -0.276 OA
ATOM     17  H   LIG d   1      -6.274  93.035 120.342  0.00  0.00     0.149 HD
ENDBRANCH   6  13
BRANCH   5  18
ATOM     18  N   LIG d   1      -7.800  94.083 117.073  0.00  0.00     0.381 N 
ATOM     19  H   LIG d   1      -8.605  94.149 117.663  0.00  0.00    -0.090 HD
ATOM     20  H   LIG d   1      -8.112  94.023 116.119  0.00  0.00    -0.090 HD
ATOM     21  H   LIG d   1      -7.225  94.888 117.192  0.00  0.00    -0.090 HD
ENDBRANCH   5  18
BRANCH   3  22
ATOM     22  C   LIG d   1      -5.787  90.111 115.311  0.00  0.00     0.382 C 
ATOM     23  O   LIG d   1      -6.859  89.845 114.715  0.00  0.00    -0.241 OA
ATOM     24  O   LIG d   1      -4.769  89.432 115.074  0.00  0.00    -0.241 OA
ENDBRANCH   3  22
TORSDOF 7
ENDMDL
MODEL 7
REMARK VINA RESULT:      -5.1      2.404      4.633
REMARK  7 active torsions:
REMARK  status: ('A' for Active; 'I' for Inactive)
REMARK    1  A    between atoms: C_2  and  C_3 
REMARK    2  A    between atoms: C_3  and  O_6 
REMARK    3  A    between atoms: C_3  and  C_4 
REMARK    4  A    between atoms: C_7  and  O_6 
REMARK    5  A    between atoms: C_9  and  C_10 
REMARK    6  A    between atoms: N_15  and  C_14 
REMARK    7  A    between atoms: N_20  and  C_19 
REMARK       I    between atoms: C_22  and  N_20 
ROOT
ATOM      1  C   LIG d   1      -5.593  92.009 118.896  0.00  0.00     0.161 C 
ATOM      2  C   LIG d   1      -4.813  91.142 118.113  0.00  0.00     0.016 C 
ATOM      3  C   LIG d   1      -5.024  90.940 116.730  0.00  0.00     0.038 C 
ATOM      4  C   LIG d   1      -5.941  91.712 116.000  0.00  0.00     0.028 C 
ATOM      5  C   LIG d   1      -7.097  92.238 116.844  0.00  0.00    -0.047 C 
ATOM      6  C   LIG d   1      -6.525  92.941 118.096  0.00  0.00     0.091 C 
ENDROOT
BRANCH   1   7
ATOM      7  O   LIG d   1      -4.741  92.779 119.768  0.00  0.00    -0.368 OA
BRANCH   7   8
ATOM      8  C   LIG d   1      -4.100  93.934 119.174  0.00  0.00     0.119 C 
BRANCH   8   9
ATOM      9  C   LIG d   1      -2.577  93.725 119.283  0.00  0.00     0.028 C 
ATOM     10  C   LIG d   1      -1.898  93.629 117.907  0.00  0.00     0.006 C 
ENDBRANCH   8   9
BRANCH   8  11
ATOM     11  C   LIG d   1      -4.393  95.207 119.975  0.00  0.00     0.028 C 
ATOM     12  C   LIG d   1      -5.111  94.923 121.304  0.00  0.00     0.006 C 
ENDBRANCH   8  11
ENDBRANCH   7   8
ENDBRANCH   1   7
BRANCH   6  13
ATOM     13  N   LIG d   1      -7.591  93.412 119.018  0.00  0.00    -0.311 N 
ATOM     14  C   LIG d   1      -8.079  94.651 119.004  0.00  0.00     0.210 C 
ATOM     15  C   LIG d   1      -9.159  94.934 120.053  0.00  0.00     0.109 C 
ATOM     16  O   LIG d   1      -7.742  95.534 118.200  0.00  0.00    -0.276 OA
ATOM     17  H   LIG d   1      -7.944  92.751 119.682  0.00  0.00     0.149 HD
ENDBRANCH   6  13
BRANCH   5  18
ATOM     18  N   LIG d   1      -7.899  93.136 115.991  0.00  0.00     0.381 N 
ATOM     19  H   LIG d   1      -8.595  92.608 115.504  0.00  0.00    -0.090 HD
ATOM     20  H   LIG d   1      -7.295  93.564 115.312  0.00  0.00    -0.090 HD
ATOM     21  H   LIG d   1      -8.333  93.838 116.549  0.00  0.00    -0.090 HD
ENDBRANCH   5  18
BRANCH   3  22
ATOM     22  C   LIG d   1      -4.342  89.929 116.070  0.00  0.00     0.382 C 
ATOM     23  O   LIG d   1      -3.223  89.550 116.492  0.00  0.00    -0.241 OA
ATOM     24  O   LIG d   1      -4.811  89.423 115.033  0.00  0.00    -0.241 OA
ENDBRANCH   3  22
TORSDOF 7
ENDMDL
MODEL 8
REMARK VINA RESULT:      -5.1      2.131      5.184
REMARK  7 active torsions:
REMARK  status: ('A' for Active; 'I' for Inactive)
REMARK    1  A    between atoms: C_2  and  C_3 
REMARK    2  A    between atoms: C_3  and  O_6 
REMARK    3  A    between atoms: C_3  and  C_4 
REMARK    4  A    between atoms: C_7  and  O_6 
REMARK    5  A    between atoms: C_9  and  C_10 
REMARK    6  A    between atoms: N_15  and  C_14 
REMARK    7  A    between atoms: N_20  and  C_19 
REMARK       I    between atoms: C_22  and  N_20 
ROOT
ATOM      1  C   LIG d   1      -4.616  91.275 117.616  0.00  0.00     0.161 C 
ATOM      2  C   LIG d   1      -5.387  90.643 116.627  0.00  0.00     0.016 C 
ATOM      3  C   LIG d   1      -6.580  91.191 116.103  0.00  0.00     0.038 C 
ATOM      4  C   LIG d   1      -7.005  92.489 116.426  0.00  0.00     0.028 C 
ATOM      5  C   LIG d   1      -6.530  92.957 117.798  0.00  0.00    -0.047 C 
ATOM      6  C   LIG d   1      -5.003  92.741 117.901  0.00  0.00     0.091 C 
ENDROOT
BRANCH   1   7
ATOM      7  O   LIG d   1      -3.217  91.183 117.278  0.00  0.00    -0.368 OA
BRANCH   7   8
ATOM      8  C   LIG d   1      -2.424  90.281 118.088  0.00  0.00     0.119 C 
BRANCH   8   9
ATOM      9  C   LIG d   1      -2.145  89.023 117.243  0.00  0.00     0.028 C 
ATOM     10  C   LIG d   1      -0.680  88.566 117.337  0.00  0.00     0.006 C 
ENDBRANCH   8   9
BRANCH   8  11
ATOM     11  C   LIG d   1      -3.211  89.785 119.305  0.00  0.00     0.028 C 
ATOM     12  C   LIG d   1      -2.595  90.239 120.638  0.00  0.00     0.006 C 
ENDBRANCH   8  11
ENDBRANCH   7   8
ENDBRANCH   1   7
BRANCH   6  13
ATOM     13  N   LIG d   1      -4.470  93.095 119.242  0.00  0.00    -0.311 N 
ATOM     14  C   LIG d   1      -3.416  93.888 119.426  0.00  0.00     0.210 C 
ATOM     15  C   LIG d   1      -3.020  94.107 120.890  0.00  0.00     0.109 C 
ATOM     16  O   LIG d   1      -2.791  94.455 118.518  0.00  0.00    -0.276 OA
ATOM     17  H   LIG d   1      -4.937  92.703 120.037  0.00  0.00     0.149 HD
ENDBRANCH   6  13
BRANCH   5  18
ATOM     18  N   LIG d   1      -6.926  94.370 117.948  0.00  0.00     0.381 N 
ATOM     19  H   LIG d   1      -7.630  94.598 117.275  0.00  0.00    -0.090 HD
ATOM     20  H   LIG d   1      -6.125  94.952 117.775  0.00  0.00    -0.090 HD
ATOM     21  H   LIG d   1      -7.271  94.532 118.868  0.00  0.00    -0.090 HD
ENDBRANCH   5  18
BRANCH   3  22
ATOM     22  C   LIG d   1      -7.384  90.423 115.274  0.00  0.00     0.382 C 
ATOM     23  O   LIG d   1      -7.965  89.408 115.730  0.00  0.00    -0.241 OA
ATOM     24  O   LIG d   1      -7.500  90.706 114.067  0.00  0.00    -0.241 OA
ENDBRANCH   3  22
TORSDOF 7
ENDMDL
MODEL 9
REMARK VINA RESULT:      -5.0      1.738      5.054
REMARK  7 active torsions:
REMARK  status: ('A' for Active; 'I' for Inactive)
REMARK    1  A    between atoms: C_2  and  C_3 
REMARK    2  A    between atoms: C_3  and  O_6 
REMARK    3  A    between atoms: C_3  and  C_4 
REMARK    4  A    between atoms: C_7  and  O_6 
REMARK    5  A    between atoms: C_9  and  C_10 
REMARK    6  A    between atoms: N_15  and  C_14 
REMARK    7  A    between atoms: N_20  and  C_19 
REMARK       I    between atoms: C_22  and  N_20 
ROOT
ATOM      1  C   LIG d   1      -5.877  91.185 118.594  0.00  0.00     0.161 C 
ATOM      2  C   LIG d   1      -6.822  92.209 118.770  0.00  0.00     0.016 C 
ATOM      3  C   LIG d   1      -6.485  93.514 119.199  0.00  0.00     0.038 C 
ATOM      4  C   LIG d   1      -5.152  93.928 119.337  0.00  0.00     0.028 C 
ATOM      5  C   LIG d   1      -4.193  92.786 119.658  0.00  0.00    -0.047 C 
ATOM      6  C   LIG d   1      -4.406  91.649 118.632  0.00  0.00     0.091 C 
ENDROOT
BRANCH   1   7
ATOM      7  O   LIG d   1      -6.147  90.477 117.368  0.00  0.00    -0.368 OA
BRANCH   7   8
ATOM      8  C   LIG d   1      -7.035  91.136 116.433  0.00  0.00     0.119 C 
BRANCH   8   9
ATOM      9  C   LIG d   1      -7.810  90.038 115.678  0.00  0.00     0.028 C 
ATOM     10  C   LIG d   1      -8.671  89.176 116.617  0.00  0.00     0.006 C 
ENDBRANCH   8   9
BRANCH   8  11
ATOM     11  C   LIG d   1      -6.251  91.892 115.357  0.00  0.00     0.028 C 
ATOM     12  C   LIG d   1      -7.006  91.982 114.022  0.00  0.00     0.006 C 
ENDBRANCH   8  11
ENDBRANCH   7   8
ENDBRANCH   1   7
BRANCH   6  13
ATOM     13  N   LIG d   1      -3.566  90.458 118.925  0.00  0.00    -0.311 N 
ATOM     14  C   LIG d   1      -2.873  89.804 117.994  0.00  0.00     0.210 C 
ATOM     15  C   LIG d   1      -2.089  88.591 118.505  0.00  0.00     0.109 C 
ATOM     16  O   LIG d   1      -2.808  90.131 116.800  0.00  0.00    -0.276 OA
ATOM     17  H   LIG d   1      -3.537  90.143 119.874  0.00  0.00     0.149 HD
ENDBRANCH   6  13
BRANCH   5  18
ATOM     18  N   LIG d   1      -2.824  93.335 119.638  0.00  0.00     0.381 N 
ATOM     19  H   LIG d   1      -2.492  93.451 120.574  0.00  0.00    -0.090 HD
ATOM     20  H   LIG d   1      -2.842  94.237 119.196  0.00  0.00    -0.090 HD
ATOM     21  H   LIG d   1      -2.219  92.723 119.136  0.00  0.00    -0.090 HD
ENDBRANCH   5  18
BRANCH   3  22
ATOM     22  C   LIG d   1      -7.490  94.408 119.533  0.00  0.00     0.382 C 
ATOM     23  O   LIG d   1      -7.440  95.030 120.622  0.00  0.00    -0.241 OA
ATOM     24  O   LIG d   1      -8.470  94.569 118.781  0.00  0.00    -0.241 OA
ENDBRANCH   3  22
TORSDOF 7
ENDMDL
