MODEL 1
REMARK VINA RESULT:      -5.4      0.000      0.000
REMARK  7 active torsions:
REMARK  status: ('A' for Active; 'I' for Inactive)
REMARK    1  A    between atoms: C_2  and  C_3 
REMARK    2  A    between atoms: C_3  and  O_6 
REMARK    3  A    between atoms: C_3  and  C_4 
REMARK    4  A    between atoms: C_7  and  O_6 
REMARK    5  A    between atoms: C_9  and  C_10 
REMARK    6  A    between atoms: N_15  and  C_14 
REMARK    7  A    between atoms: N_20  and  C_19 
REMARK       I    between atoms: C_22  and  N_20 
ROOT
ATOM      1  C   LIG d   1      -6.892  77.632 117.306  0.00  0.00     0.161 C 
ATOM      2  C   LIG d   1      -8.022  76.818 117.486  0.00  0.00     0.016 C 
ATOM      3  C   LIG d   1      -9.248  77.292 118.008  0.00  0.00     0.038 C 
ATOM      4  C   LIG d   1      -9.474  78.656 118.245  0.00  0.00     0.028 C 
ATOM      5  C   LIG d   1      -8.201  79.436 118.555  0.00  0.00    -0.047 C 
ATOM      6  C   LIG d   1      -7.154  79.145 117.455  0.00  0.00     0.091 C 
ENDROOT
BRANCH   1   7
ATOM      7  O   LIG d   1      -6.286  77.352 116.028  0.00  0.00    -0.368 OA
BRANCH   7   8
ATOM      8  C   LIG d   1      -6.173  75.953 115.669  0.00  0.00     0.119 C 
BRANCH   8   9
ATOM      9  C   LIG d   1      -4.712  75.530 115.911  0.00  0.00     0.028 C 
ATOM     10  C   LIG d   1      -4.548  74.689 117.189  0.00  0.00     0.006 C 
ENDBRANCH   8   9
BRANCH   8  11
ATOM     11  C   LIG d   1      -6.414  75.741 114.172  0.00  0.00     0.028 C 
ATOM     12  C   LIG d   1      -5.336  74.866 113.513  0.00  0.00     0.006 C 
ENDBRANCH   8  11
ENDBRANCH   7   8
ENDBRANCH   1   7
BRANCH   6  13
ATOM     13  N   LIG d   1      -5.850  79.803 117.726  0.00  0.00    -0.311 N 
ATOM     14  C   LIG d   1      -5.485  80.962 117.179  0.00  0.00     0.210 C 
ATOM     15  C   LIG d   1      -4.091  81.455 117.577  0.00  0.00     0.109 C 
ATOM     16  O   LIG d   1      -6.198  81.644 116.428  0.00  0.00    -0.276 OA
ATOM     17  H   LIG d   1      -5.222  79.334 118.350  0.00  0.00     0.149 HD
ENDBRANCH   6  13
BRANCH   5  18
ATOM     18  N   LIG d   1      -8.564  80.863 118.645  0.00  0.00     0.381 N 
ATOM     19  H   LIG d   1      -7.936  81.334 119.266  0.00  0.00    -0.090 HD
ATOM     20  H   LIG d   1      -9.493  80.939 119.019  0.00  0.00    -0.090 HD
ATOM     21  H   LIG d   1      -8.526  81.282 117.742  0.00  0.00    -0.090 HD
ENDBRANCH   5  18
BRANCH   3  22
ATOM     22  C   LIG d   1     -10.250  76.391 118.335  0.00  0.00     0.382 C 
ATOM     23  O   LIG d   1     -11.451  76.754 118.313  0.00  0.00    -0.241 OA
ATOM     24  O   LIG d   1      -9.965  75.233 118.694  0.00  0.00    -0.241 OA
ENDBRANCH   3  22
TORSDOF 7
ENDMDL
MODEL 2
REMARK VINA RESULT:      -5.2      4.190      5.130
REMARK  7 active torsions:
REMARK  status: ('A' for Active; 'I' for Inactive)
REMARK    1  A    between atoms: C_2  and  C_3 
REMARK    2  A    between atoms: C_3  and  O_6 
REMARK    3  A    between atoms: C_3  and  C_4 
REMARK    4  A    between atoms: C_7  and  O_6 
REMARK    5  A    between atoms: C_9  and  C_10 
REMARK    6  A    between atoms: N_15  and  C_14 
REMARK    7  A    between atoms: N_20  and  C_19 
REMARK       I    between atoms: C_22  and  N_20 
ROOT
ATOM      1  C   LIG d   1      -4.691  75.625 116.885  0.00  0.00     0.161 C 
ATOM      2  C   LIG d   1      -5.592  74.590 117.189  0.00  0.00     0.016 C 
ATOM      3  C   LIG d   1      -6.340  73.898 116.209  0.00  0.00     0.038 C 
ATOM      4  C   LIG d   1      -6.125  74.093 114.837  0.00  0.00     0.028 C 
ATOM      5  C   LIG d   1      -5.591  75.481 114.498  0.00  0.00    -0.047 C 
ATOM      6  C   LIG d   1      -4.360  75.775 115.385  0.00  0.00     0.091 C 
ENDROOT
BRANCH   1   7
ATOM      7  O   LIG d   1      -3.481  75.459 117.651  0.00  0.00    -0.368 OA
BRANCH   7   8
ATOM      8  C   LIG d   1      -2.706  74.268 117.368  0.00  0.00     0.119 C 
BRANCH   8   9
ATOM      9  C   LIG d   1      -2.382  73.595 118.716  0.00  0.00     0.028 C 
ATOM     10  C   LIG d   1      -0.936  73.855 119.170  0.00  0.00     0.006 C 
ENDBRANCH   8   9
BRANCH   8  11
ATOM     11  C   LIG d   1      -1.347  74.621 116.754  0.00  0.00     0.028 C 
ATOM     12  C   LIG d   1      -1.103  73.922 115.407  0.00  0.00     0.006 C 
ENDBRANCH   8  11
ENDBRANCH   7   8
ENDBRANCH   1   7
BRANCH   6  13
ATOM     13  N   LIG d   1      -3.827  77.147 115.178  0.00  0.00    -0.311 N 
ATOM     14  C   LIG d   1      -2.870  77.436 114.298  0.00  0.00     0.210 C 
ATOM     15  C   LIG d   1      -2.453  78.909 114.258  0.00  0.00     0.109 C 
ATOM     16  O   LIG d   1      -2.349  76.618 113.525  0.00  0.00    -0.276 OA
ATOM     17  H   LIG d   1      -4.216  77.877 115.742  0.00  0.00     0.149 HD
ENDBRANCH   6  13
BRANCH   5  18
ATOM     18  N   LIG d   1      -5.283  75.500 113.056  0.00  0.00     0.381 N 
ATOM     19  H   LIG d   1      -5.690  74.701 112.612  0.00  0.00    -0.090 HD
ATOM     20  H   LIG d   1      -4.286  75.453 112.936  0.00  0.00    -0.090 HD
ATOM     21  H   LIG d   1      -5.636  76.335 112.643  0.00  0.00    -0.090 HD
ENDBRANCH   5  18
BRANCH   3  22
ATOM     22  C   LIG d   1      -7.346  73.027 116.601  0.00  0.00     0.382 C 
ATOM     23  O   LIG d   1      -8.179  73.382 117.469  0.00  0.00    -0.241 OA
ATOM     24  O   LIG d   1      -7.403  71.875 116.130  0.00  0.00    -0.241 OA
ENDBRANCH   3  22
TORSDOF 7
ENDMDL
MODEL 3
REMARK VINA RESULT:      -4.9      2.204      4.560
REMARK  7 active torsions:
REMARK  status: ('A' for Active; 'I' for Inactive)
REMARK    1  A    between atoms: C_2  and  C_3 
REMARK    2  A    between atoms: C_3  and  O_6 
REMARK    3  A    between atoms: C_3  and  C_4 
REMARK    4  A    between atoms: C_7  and  O_6 
REMARK    5  A    between atoms: C_9  and  C_10 
REMARK    6  A    between atoms: N_15  and  C_14 
REMARK    7  A    between atoms: N_20  and  C_19 
REMARK       I    between atoms: C_22  and  N_20 
ROOT
ATOM      1  C   LIG d   1      -7.812  78.371 117.537  0.00  0.00     0.161 C 
ATOM      2  C   LIG d   1      -9.031  77.791 117.928  0.00  0.00     0.016 C 
ATOM      3  C   LIG d   1      -9.245  76.394 117.986  0.00  0.00     0.038 C 
ATOM      4  C   LIG d   1      -8.201  75.476 117.800  0.00  0.00     0.028 C 
ATOM      5  C   LIG d   1      -7.080  76.004 116.911  0.00  0.00    -0.047 C 
ATOM      6  C   LIG d   1      -6.629  77.385 117.438  0.00  0.00     0.091 C 
ENDROOT
BRANCH   1   7
ATOM      7  O   LIG d   1      -7.484  79.461 118.420  0.00  0.00    -0.368 OA
BRANCH   7   8
ATOM      8  C   LIG d   1      -7.579  80.791 117.854  0.00  0.00     0.119 C 
BRANCH   8   9
ATOM      9  C   LIG d   1      -6.236  81.501 118.115  0.00  0.00     0.028 C 
ATOM     10  C   LIG d   1      -5.381  81.626 116.842  0.00  0.00     0.006 C 
ENDBRANCH   8   9
BRANCH   8  11
ATOM     11  C   LIG d   1      -8.631  81.633 118.582  0.00  0.00     0.028 C 
ATOM     12  C   LIG d   1      -9.863  81.929 117.712  0.00  0.00     0.006 C 
ENDBRANCH   8  11
ENDBRANCH   7   8
ENDBRANCH   1   7
BRANCH   6  13
ATOM     13  N   LIG d   1      -5.593  78.011 116.575  0.00  0.00    -0.311 N 
ATOM     14  C   LIG d   1      -4.285  77.885 116.792  0.00  0.00     0.210 C 
ATOM     15  C   LIG d   1      -3.390  78.627 115.794  0.00  0.00     0.109 C 
ATOM     16  O   LIG d   1      -3.780  77.203 117.696  0.00  0.00    -0.276 OA
ATOM     17  H   LIG d   1      -5.914  78.556 115.800  0.00  0.00     0.149 HD
ENDBRANCH   6  13
BRANCH   5  18
ATOM     18  N   LIG d   1      -5.998  75.002 116.915  0.00  0.00     0.381 N 
ATOM     19  H   LIG d   1      -6.343  74.132 117.269  0.00  0.00    -0.090 HD
ATOM     20  H   LIG d   1      -5.263  75.320 117.522  0.00  0.00    -0.090 HD
ATOM     21  H   LIG d   1      -5.646  74.876 115.991  0.00  0.00    -0.090 HD
ENDBRANCH   5  18
BRANCH   3  22
ATOM     22  C   LIG d   1     -10.525  75.903 118.192  0.00  0.00     0.382 C 
ATOM     23  O   LIG d   1     -11.493  76.696 118.283  0.00  0.00    -0.241 OA
ATOM     24  O   LIG d   1     -10.717  74.681 118.335  0.00  0.00    -0.241 OA
ENDBRANCH   3  22
TORSDOF 7
ENDMDL
MODEL 4
REMARK VINA RESULT:      -4.7     17.139     19.352
REMARK  7 active torsions:
REMARK  status: ('A' for Active; 'I' for Inactive)
REMARK    1  A    between atoms: C_2  and  C_3 
REMARK    2  A    between atoms: C_3  and  O_6 
REMARK    3  A    between atoms: C_3  and  C_4 
REMARK    4  A    between atoms: C_7  and  O_6 
REMARK    5  A    between atoms: C_9  and  C_10 
REMARK    6  A    between atoms: N_15  and  C_14 
REMARK    7  A    between atoms: N_20  and  C_19 
REMARK       I    between atoms: C_22  and  N_20 
ROOT
ATOM      1  C   LIG d   1      11.400  76.480 115.403  0.00  0.00     0.161 C 
ATOM      2  C   LIG d   1      10.030  76.779 115.326  0.00  0.00     0.016 C 
ATOM      3  C   LIG d   1       9.529  78.034 114.911  0.00  0.00     0.038 C 
ATOM      4  C   LIG d   1      10.368  79.034 114.397  0.00  0.00     0.028 C 
ATOM      5  C   LIG d   1      11.795  78.960 114.929  0.00  0.00    -0.047 C 
ATOM      6  C   LIG d   1      12.327  77.521 114.740  0.00  0.00     0.091 C 
ENDROOT
BRANCH   1   7
ATOM      7  O   LIG d   1      11.646  75.170 114.855  0.00  0.00    -0.368 OA
BRANCH   7   8
ATOM      8  C   LIG d   1      11.980  74.133 115.810  0.00  0.00     0.119 C 
BRANCH   8   9
ATOM      9  C   LIG d   1      13.486  73.839 115.667  0.00  0.00     0.028 C 
ATOM     10  C   LIG d   1      14.274  74.179 116.944  0.00  0.00     0.006 C 
ENDBRANCH   8   9
BRANCH   8  11
ATOM     11  C   LIG d   1      11.276  72.815 115.471  0.00  0.00     0.028 C 
ATOM     12  C   LIG d   1      12.205  71.804 114.782  0.00  0.00     0.006 C 
ENDBRANCH   8  11
ENDBRANCH   7   8
ENDBRANCH   1   7
BRANCH   6  13
ATOM     13  N   LIG d   1      13.687  77.340 115.311  0.00  0.00    -0.311 N 
ATOM     14  C   LIG d   1      14.800  77.387 114.581  0.00  0.00     0.210 C 
ATOM     15  C   LIG d   1      16.097  77.155 115.364  0.00  0.00     0.109 C 
ATOM     16  O   LIG d   1      14.840  77.631 113.366  0.00  0.00    -0.276 OA
ATOM     17  H   LIG d   1      13.750  77.169 116.295  0.00  0.00     0.149 HD
ENDBRANCH   6  13
BRANCH   5  18
ATOM     18  N   LIG d   1      12.592  79.971 114.209  0.00  0.00     0.381 N 
ATOM     19  H   LIG d   1      13.108  79.533 113.472  0.00  0.00    -0.090 HD
ATOM     20  H   LIG d   1      13.246  80.386 114.849  0.00  0.00    -0.090 HD
ATOM     21  H   LIG d   1      11.993  80.672 113.832  0.00  0.00    -0.090 HD
ENDBRANCH   5  18
BRANCH   3  22
ATOM     22  C   LIG d   1       8.177  78.313 115.047  0.00  0.00     0.382 C 
ATOM     23  O   LIG d   1       7.331  77.635 114.417  0.00  0.00    -0.241 OA
ATOM     24  O   LIG d   1       7.797  79.264 115.756  0.00  0.00    -0.241 OA
ENDBRANCH   3  22
TORSDOF 7
ENDMDL
MODEL 5
REMARK VINA RESULT:      -4.7     20.431     22.460
REMARK  7 active torsions:
REMARK  status: ('A' for Active; 'I' for Inactive)
REMARK    1  A    between atoms: C_2  and  C_3 
REMARK    2  A    between atoms: C_3  and  O_6 
REMARK    3  A    between atoms: C_3  and  C_4 
REMARK    4  A    between atoms: C_7  and  O_6 
REMARK    5  A    between atoms: C_9  and  C_10 
REMARK    6  A    between atoms: N_15  and  C_14 
REMARK    7  A    between atoms: N_20  and  C_19 
REMARK       I    between atoms: C_22  and  N_20 
ROOT
ATOM      1  C   LIG d   1     -16.910  97.790 117.779  0.00  0.00     0.161 C 
ATOM      2  C   LIG d   1     -18.015  96.932 117.658  0.00  0.00     0.016 C 
ATOM      3  C   LIG d   1     -18.933  96.991 116.584  0.00  0.00     0.038 C 
ATOM      4  C   LIG d   1     -18.720  97.819 115.472  0.00  0.00     0.028 C 
ATOM      5  C   LIG d   1     -17.891  99.059 115.789  0.00  0.00    -0.047 C 
ATOM      6  C   LIG d   1     -16.599  98.625 116.519  0.00  0.00     0.091 C 
ENDROOT
BRANCH   1   7
ATOM      7  O   LIG d   1     -15.748  97.037 118.180  0.00  0.00    -0.368 OA
BRANCH   7   8
ATOM      8  C   LIG d   1     -15.433  97.056 119.594  0.00  0.00     0.119 C 
BRANCH   8   9
ATOM      9  C   LIG d   1     -14.336  98.117 119.809  0.00  0.00     0.028 C 
ATOM     10  C   LIG d   1     -14.874  99.389 120.485  0.00  0.00     0.006 C 
ENDBRANCH   8   9
BRANCH   8  11
ATOM     11  C   LIG d   1     -14.810  95.732 120.044  0.00  0.00     0.028 C 
ATOM     12  C   LIG d   1     -13.385  95.900 120.595  0.00  0.00     0.006 C 
ENDBRANCH   8  11
ENDBRANCH   7   8
ENDBRANCH   1   7
BRANCH   6  13
ATOM     13  N   LIG d   1     -15.769  99.784 116.940  0.00  0.00    -0.311 N 
ATOM     14  C   LIG d   1     -14.494  99.939 116.589  0.00  0.00     0.210 C 
ATOM     15  C   LIG d   1     -13.818 101.195 117.149  0.00  0.00     0.109 C 
ATOM     16  O   LIG d   1     -13.868  99.173 115.842  0.00  0.00    -0.276 OA
ATOM     17  H   LIG d   1     -16.207 100.470 117.523  0.00  0.00     0.149 HD
ENDBRANCH   6  13
BRANCH   5  18
ATOM     18  N   LIG d   1     -17.629  99.758 114.517  0.00  0.00     0.381 N 
ATOM     19  H   LIG d   1     -18.366 100.409 114.330  0.00  0.00    -0.090 HD
ATOM     20  H   LIG d   1     -17.609  99.083 113.773  0.00  0.00    -0.090 HD
ATOM     21  H   LIG d   1     -16.757 100.237 114.564  0.00  0.00    -0.090 HD
ENDBRANCH   5  18
BRANCH   3  22
ATOM     22  C   LIG d   1     -20.100  96.245 116.635  0.00  0.00     0.382 C 
ATOM     23  O   LIG d   1     -20.942  96.332 115.709  0.00  0.00    -0.241 OA
ATOM     24  O   LIG d   1     -20.343  95.518 117.618  0.00  0.00    -0.241 OA
ENDBRANCH   3  22
TORSDOF 7
ENDMDL
MODEL 6
REMARK VINA RESULT:      -4.6     20.489     22.659
REMARK  7 active torsions:
REMARK  status: ('A' for Active; 'I' for Inactive)
REMARK    1  A    between atoms: C_2  and  C_3 
REMARK    2  A    between atoms: C_3  and  O_6 
REMARK    3  A    between atoms: C_3  and  C_4 
REMARK    4  A    between atoms: C_7  and  O_6 
REMARK    5  A    between atoms: C_9  and  C_10 
REMARK    6  A    between atoms: N_15  and  C_14 
REMARK    7  A    between atoms: N_20  and  C_19 
REMARK       I    between atoms: C_22  and  N_20 
ROOT
ATOM      1  C   LIG d   1     -16.475  97.231 117.696  0.00  0.00     0.161 C 
ATOM      2  C   LIG d   1     -15.469  98.006 117.095  0.00  0.00     0.016 C 
ATOM      3  C   LIG d   1     -15.721  98.957 116.079  0.00  0.00     0.038 C 
ATOM      4  C   LIG d   1     -17.025  99.307 115.698  0.00  0.00     0.028 C 
ATOM      5  C   LIG d   1     -18.041  98.190 115.918  0.00  0.00    -0.047 C 
ATOM      6  C   LIG d   1     -17.916  97.678 117.371  0.00  0.00     0.091 C 
ENDROOT
BRANCH   1   7
ATOM      7  O   LIG d   1     -16.273  97.188 119.122  0.00  0.00    -0.368 OA
BRANCH   7   8
ATOM      8  C   LIG d   1     -15.960  95.889 119.682  0.00  0.00     0.119 C 
BRANCH   8   9
ATOM      9  C   LIG d   1     -16.694  95.778 121.033  0.00  0.00     0.028 C 
ATOM     10  C   LIG d   1     -18.039  95.043 120.912  0.00  0.00     0.006 C 
ENDBRANCH   8   9
BRANCH   8  11
ATOM     11  C   LIG d   1     -14.470  95.772 120.019  0.00  0.00     0.028 C 
ATOM     12  C   LIG d   1     -13.862  97.099 120.500  0.00  0.00     0.006 C 
ENDBRANCH   8  11
ENDBRANCH   7   8
ENDBRANCH   1   7
BRANCH   6  13
ATOM     13  N   LIG d   1     -18.816  96.528 117.646  0.00  0.00    -0.311 N 
ATOM     14  C   LIG d   1     -20.039  96.660 118.157  0.00  0.00     0.210 C 
ATOM     15  C   LIG d   1     -20.792  95.344 118.380  0.00  0.00     0.109 C 
ATOM     16  O   LIG d   1     -20.584  97.743 118.418  0.00  0.00    -0.276 OA
ATOM     17  H   LIG d   1     -18.466  95.614 117.435  0.00  0.00     0.149 HD
ENDBRANCH   6  13
BRANCH   5  18
ATOM     18  N   LIG d   1     -19.376  98.736 115.610  0.00  0.00     0.381 N 
ATOM     19  H   LIG d   1     -19.383  99.724 115.765  0.00  0.00    -0.090 HD
ATOM     20  H   LIG d   1     -20.049  98.315 116.226  0.00  0.00    -0.090 HD
ATOM     21  H   LIG d   1     -19.614  98.540 114.662  0.00  0.00    -0.090 HD
ENDBRANCH   5  18
BRANCH   3  22
ATOM     22  C   LIG d   1     -14.659  99.540 115.405  0.00  0.00     0.382 C 
ATOM     23  O   LIG d   1     -13.512  99.526 115.911  0.00  0.00    -0.241 OA
ATOM     24  O   LIG d   1     -14.843 100.118 114.317  0.00  0.00    -0.241 OA
ENDBRANCH   3  22
TORSDOF 7
ENDMDL
MODEL 7
REMARK VINA RESULT:      -4.5     10.858     13.385
REMARK  7 active torsions:
REMARK  status: ('A' for Active; 'I' for Inactive)
REMARK    1  A    between atoms: C_2  and  C_3 
REMARK    2  A    between atoms: C_3  and  O_6 
REMARK    3  A    between atoms: C_3  and  C_4 
REMARK    4  A    between atoms: C_7  and  O_6 
REMARK    5  A    between atoms: C_9  and  C_10 
REMARK    6  A    between atoms: N_15  and  C_14 
REMARK    7  A    between atoms: N_20  and  C_19 
REMARK       I    between atoms: C_22  and  N_20 
ROOT
ATOM      1  C   LIG d   1      -0.292  88.641 117.254  0.00  0.00     0.161 C 
ATOM      2  C   LIG d   1      -1.637  88.902 117.564  0.00  0.00     0.016 C 
ATOM      3  C   LIG d   1      -2.118  90.182 117.923  0.00  0.00     0.038 C 
ATOM      4  C   LIG d   1      -1.310  91.326 117.848  0.00  0.00     0.028 C 
ATOM      5  C   LIG d   1       0.175  91.031 118.028  0.00  0.00    -0.047 C 
ATOM      6  C   LIG d   1       0.583  89.897 117.059  0.00  0.00     0.091 C 
ENDROOT
BRANCH   1   7
ATOM      7  O   LIG d   1      -0.214  87.791 116.092  0.00  0.00    -0.368 OA
BRANCH   7   8
ATOM      8  C   LIG d   1      -0.120  86.368 116.348  0.00  0.00     0.119 C 
BRANCH   8   9
ATOM      9  C   LIG d   1       1.322  85.934 116.021  0.00  0.00     0.028 C 
ATOM     10  C   LIG d   1       1.683  86.166 114.544  0.00  0.00     0.006 C 
ENDBRANCH   8   9
BRANCH   8  11
ATOM     11  C   LIG d   1      -1.011  85.570 115.392  0.00  0.00     0.028 C 
ATOM     12  C   LIG d   1      -2.497  85.619 115.782  0.00  0.00     0.006 C 
ENDBRANCH   8  11
ENDBRANCH   7   8
ENDBRANCH   1   7
BRANCH   6  13
ATOM     13  N   LIG d   1       2.001  89.489 117.229  0.00  0.00    -0.311 N 
ATOM     14  C   LIG d   1       2.850  89.346 116.213  0.00  0.00     0.210 C 
ATOM     15  C   LIG d   1       4.261  88.898 116.607  0.00  0.00     0.109 C 
ATOM     16  O   LIG d   1       2.577  89.579 115.026  0.00  0.00    -0.276 OA
ATOM     17  H   LIG d   1       2.316  89.310 118.163  0.00  0.00     0.149 HD
ENDBRANCH   6  13
BRANCH   5  18
ATOM     18  N   LIG d   1       0.911  92.287 117.790  0.00  0.00     0.381 N 
ATOM     19  H   LIG d   1       1.782  92.268 118.283  0.00  0.00    -0.090 HD
ATOM     20  H   LIG d   1       0.366  93.055 118.141  0.00  0.00    -0.090 HD
ATOM     21  H   LIG d   1       1.076  92.406 116.815  0.00  0.00    -0.090 HD
ENDBRANCH   5  18
BRANCH   3  22
ATOM     22  C   LIG d   1      -3.413  90.320 118.400  0.00  0.00     0.382 C 
ATOM     23  O   LIG d   1      -4.249  89.403 118.219  0.00  0.00    -0.241 OA
ATOM     24  O   LIG d   1      -3.767  91.369 118.971  0.00  0.00    -0.241 OA
ENDBRANCH   3  22
TORSDOF 7
ENDMDL
MODEL 8
REMARK VINA RESULT:      -4.4     20.118     22.272
REMARK  7 active torsions:
REMARK  status: ('A' for Active; 'I' for Inactive)
REMARK    1  A    between atoms: C_2  and  C_3 
REMARK    2  A    between atoms: C_3  and  O_6 
REMARK    3  A    between atoms: C_3  and  C_4 
REMARK    4  A    between atoms: C_7  and  O_6 
REMARK    5  A    between atoms: C_9  and  C_10 
REMARK    6  A    between atoms: N_15  and  C_14 
REMARK    7  A    between atoms: N_20  and  C_19 
REMARK       I    between atoms: C_22  and  N_20 
ROOT
ATOM      1  C   LIG d   1     -16.088  96.916 117.189  0.00  0.00     0.161 C 
ATOM      2  C   LIG d   1     -17.321  97.047 116.528  0.00  0.00     0.016 C 
ATOM      3  C   LIG d   1     -18.570  96.908 117.176  0.00  0.00     0.038 C 
ATOM      4  C   LIG d   1     -18.672  96.777 118.569  0.00  0.00     0.028 C 
ATOM      5  C   LIG d   1     -17.446  96.136 119.209  0.00  0.00    -0.047 C 
ATOM      6  C   LIG d   1     -16.181  96.884 118.729  0.00  0.00     0.091 C 
ENDROOT
BRANCH   1   7
ATOM      7  O   LIG d   1     -15.192  97.961 116.763  0.00  0.00    -0.368 OA
BRANCH   7   8
ATOM      8  C   LIG d   1     -15.813  99.189 116.312  0.00  0.00     0.119 C 
BRANCH   8   9
ATOM      9  C   LIG d   1     -15.018  99.689 115.090  0.00  0.00     0.028 C 
ATOM     10  C   LIG d   1     -13.622 100.210 115.472  0.00  0.00     0.006 C 
ENDBRANCH   8   9
BRANCH   8  11
ATOM     11  C   LIG d   1     -15.683 100.298 117.361  0.00  0.00     0.028 C 
ATOM     12  C   LIG d   1     -17.008 100.594 118.082  0.00  0.00     0.006 C 
ENDBRANCH   8  11
ENDBRANCH   7   8
ENDBRANCH   1   7
BRANCH   6  13
ATOM     13  N   LIG d   1     -14.929  96.267 119.242  0.00  0.00    -0.311 N 
ATOM     14  C   LIG d   1     -14.333  96.649 120.370  0.00  0.00     0.210 C 
ATOM     15  C   LIG d   1     -13.042  95.895 120.706  0.00  0.00     0.109 C 
ATOM     16  O   LIG d   1     -14.768  97.517 121.142  0.00  0.00    -0.276 OA
ATOM     17  H   LIG d   1     -14.525  95.533 118.695  0.00  0.00     0.149 HD
ENDBRANCH   6  13
BRANCH   5  18
ATOM     18  N   LIG d   1     -17.628  96.187 120.672  0.00  0.00     0.381 N 
ATOM     19  H   LIG d   1     -16.748  96.352 121.117  0.00  0.00    -0.090 HD
ATOM     20  H   LIG d   1     -17.979  95.299 120.987  0.00  0.00    -0.090 HD
ATOM     21  H   LIG d   1     -18.271  96.910 120.910  0.00  0.00    -0.090 HD
ENDBRANCH   5  18
BRANCH   3  22
ATOM     22  C   LIG d   1     -19.733  96.860 116.422  0.00  0.00     0.382 C 
ATOM     23  O   LIG d   1     -20.076  97.851 115.734  0.00  0.00    -0.241 OA
ATOM     24  O   LIG d   1     -20.466  95.853 116.457  0.00  0.00    -0.241 OA
ENDBRANCH   3  22
TORSDOF 7
ENDMDL
MODEL 9
REMARK VINA RESULT:      -4.4      2.174      4.943
REMARK  7 active torsions:
REMARK  status: ('A' for Active; 'I' for Inactive)
REMARK    1  A    between atoms: C_2  and  C_3 
REMARK    2  A    between atoms: C_3  and  O_6 
REMARK    3  A    between atoms: C_3  and  C_4 
REMARK    4  A    between atoms: C_7  and  O_6 
REMARK    5  A    between atoms: C_9  and  C_10 
REMARK    6  A    between atoms: N_15  and  C_14 
REMARK    7  A    between atoms: N_20  and  C_19 
REMARK       I    between atoms: C_22  and  N_20 
ROOT
ATOM      1  C   LIG d   1      -7.198  76.355 117.091  0.00  0.00     0.161 C 
ATOM      2  C   LIG d   1      -6.832  75.744 115.880  0.00  0.00     0.016 C 
ATOM      3  C   LIG d   1      -5.595  75.974 115.235  0.00  0.00     0.038 C 
ATOM      4  C   LIG d   1      -4.572  76.720 115.838  0.00  0.00     0.028 C 
ATOM      5  C   LIG d   1      -5.084  77.766 116.823  0.00  0.00    -0.047 C 
ATOM      6  C   LIG d   1      -6.050  77.085 117.819  0.00  0.00     0.091 C 
ENDROOT
BRANCH   1   7
ATOM      7  O   LIG d   1      -7.807  75.384 117.964  0.00  0.00    -0.368 OA
BRANCH   7   8
ATOM      8  C   LIG d   1      -9.251  75.437 118.068  0.00  0.00     0.119 C 
BRANCH   8   9
ATOM      9  C   LIG d   1      -9.597  76.378 119.238  0.00  0.00     0.028 C 
ATOM     10  C   LIG d   1     -10.575  77.492 118.827  0.00  0.00     0.006 C 
ENDBRANCH   8   9
BRANCH   8  11
ATOM     11  C   LIG d   1      -9.833  74.075 118.457  0.00  0.00     0.028 C 
ATOM     12  C   LIG d   1      -9.018  72.898 117.900  0.00  0.00     0.006 C 
ENDBRANCH   8  11
ENDBRANCH   7   8
ENDBRANCH   1   7
BRANCH   6  13
ATOM     13  N   LIG d   1      -6.663  78.054 118.766  0.00  0.00    -0.311 N 
ATOM     14  C   LIG d   1      -7.293  79.161 118.377  0.00  0.00     0.210 C 
ATOM     15  C   LIG d   1      -7.833  80.031 119.515  0.00  0.00     0.109 C 
ATOM     16  O   LIG d   1      -7.484  79.488 117.196  0.00  0.00    -0.276 OA
ATOM     17  H   LIG d   1      -6.582  77.850 119.743  0.00  0.00     0.149 HD
ENDBRANCH   6  13
BRANCH   5  18
ATOM     18  N   LIG d   1      -3.911  78.374 117.478  0.00  0.00     0.381 N 
ATOM     19  H   LIG d   1      -3.727  79.272 117.078  0.00  0.00    -0.090 HD
ATOM     20  H   LIG d   1      -3.110  77.788 117.319  0.00  0.00    -0.090 HD
ATOM     21  H   LIG d   1      -4.076  78.465 118.456  0.00  0.00    -0.090 HD
ENDBRANCH   5  18
BRANCH   3  22
ATOM     22  C   LIG d   1      -5.387  75.487 113.953  0.00  0.00     0.382 C 
ATOM     23  O   LIG d   1      -4.957  76.250 113.055  0.00  0.00    -0.241 OA
ATOM     24  O   LIG d   1      -5.667  74.306 113.673  0.00  0.00    -0.241 OA
ENDBRANCH   3  22
TORSDOF 7
ENDMDL
