MODEL 1
REMARK VINA RESULT:      -6.0      0.000      0.000
REMARK  7 active torsions:
REMARK  status: ('A' for Active; 'I' for Inactive)
REMARK    1  A    between atoms: C_2  and  C_3 
REMARK    2  A    between atoms: C_3  and  O_6 
REMARK    3  A    between atoms: C_3  and  C_4 
REMARK    4  A    between atoms: C_7  and  O_6 
REMARK    5  A    between atoms: C_9  and  C_10 
REMARK    6  A    between atoms: N_15  and  C_14 
REMARK    7  A    between atoms: N_20  and  C_19 
REMARK       I    between atoms: C_22  and  N_20 
ROOT
ATOM      1  C   LIG d   1      -4.441  90.643 117.429  0.00  0.00     0.161 C 
ATOM      2  C   LIG d   1      -5.010  90.139 116.247  0.00  0.00     0.016 C 
ATOM      3  C   LIG d   1      -6.122  90.730 115.604  0.00  0.00     0.038 C 
ATOM      4  C   LIG d   1      -6.650  91.961 116.020  0.00  0.00     0.028 C 
ATOM      5  C   LIG d   1      -6.431  92.245 117.502  0.00  0.00    -0.047 C 
ATOM      6  C   LIG d   1      -4.935  92.048 117.835  0.00  0.00     0.091 C 
ENDROOT
BRANCH   1   7
ATOM      7  O   LIG d   1      -3.004  90.628 117.325  0.00  0.00    -0.368 OA
BRANCH   7   8
ATOM      8  C   LIG d   1      -2.343  89.432 117.808  0.00  0.00     0.119 C 
BRANCH   8   9
ATOM      9  C   LIG d   1      -2.886  89.142 119.221  0.00  0.00     0.028 C 
ATOM     10  C   LIG d   1      -1.962  89.679 120.327  0.00  0.00     0.006 C 
ENDBRANCH   8   9
BRANCH   8  11
ATOM     11  C   LIG d   1      -0.840  89.662 117.991  0.00  0.00     0.028 C 
ATOM     12  C   LIG d   1      -0.069  89.647 116.662  0.00  0.00     0.006 C 
ENDBRANCH   8  11
ENDBRANCH   7   8
ENDBRANCH   1   7
BRANCH   6  13
ATOM     13  N   LIG d   1      -4.648  92.224 119.282  0.00  0.00    -0.311 N 
ATOM     14  C   LIG d   1      -3.694  93.029 119.748  0.00  0.00     0.210 C 
ATOM     15  C   LIG d   1      -3.553  93.048 121.274  0.00  0.00     0.109 C 
ATOM     16  O   LIG d   1      -2.974  93.753 119.045  0.00  0.00    -0.276 OA
ATOM     17  H   LIG d   1      -5.206  91.697 119.925  0.00  0.00     0.149 HD
ENDBRANCH   6  13
BRANCH   5  18
ATOM     18  N   LIG d   1      -6.908  93.615 117.769  0.00  0.00     0.381 N 
ATOM     19  H   LIG d   1      -6.566  93.926 118.656  0.00  0.00    -0.090 HD
ATOM     20  H   LIG d   1      -7.912  93.609 117.802  0.00  0.00    -0.090 HD
ATOM     21  H   LIG d   1      -6.595  94.230 117.050  0.00  0.00    -0.090 HD
ENDBRANCH   5  18
BRANCH   3  22
ATOM     22  C   LIG d   1      -6.742  90.067 114.556  0.00  0.00     0.382 C 
ATOM     23  O   LIG d   1      -6.099  89.233 113.873  0.00  0.00    -0.241 OA
ATOM     24  O   LIG d   1      -7.923  90.324 114.257  0.00  0.00    -0.241 OA
ENDBRANCH   3  22
TORSDOF 7
ENDMDL
MODEL 2
REMARK VINA RESULT:      -5.6      2.606      5.135
REMARK  7 active torsions:
REMARK  status: ('A' for Active; 'I' for Inactive)
REMARK    1  A    between atoms: C_2  and  C_3 
REMARK    2  A    between atoms: C_3  and  O_6 
REMARK    3  A    between atoms: C_3  and  C_4 
REMARK    4  A    between atoms: C_7  and  O_6 
REMARK    5  A    between atoms: C_9  and  C_10 
REMARK    6  A    between atoms: N_15  and  C_14 
REMARK    7  A    between atoms: N_20  and  C_19 
REMARK       I    between atoms: C_22  and  N_20 
ROOT
ATOM      1  C   LIG d   1      -6.389  92.695 118.078  0.00  0.00     0.161 C 
ATOM      2  C   LIG d   1      -6.949  91.615 117.376  0.00  0.00     0.016 C 
ATOM      3  C   LIG d   1      -6.180  90.567 116.818  0.00  0.00     0.038 C 
ATOM      4  C   LIG d   1      -4.803  90.450 117.057  0.00  0.00     0.028 C 
ATOM      5  C   LIG d   1      -4.121  91.785 117.334  0.00  0.00    -0.047 C 
ATOM      6  C   LIG d   1      -4.900  92.527 118.444  0.00  0.00     0.091 C 
ENDROOT
BRANCH   1   7
ATOM      7  O   LIG d   1      -7.169  92.966 119.260  0.00  0.00    -0.368 OA
BRANCH   7   8
ATOM      8  C   LIG d   1      -8.340  93.798 119.074  0.00  0.00     0.119 C 
BRANCH   8   9
ATOM      9  C   LIG d   1      -7.909  95.027 118.251  0.00  0.00     0.028 C 
ATOM     10  C   LIG d   1      -7.292  96.132 119.125  0.00  0.00     0.006 C 
ENDBRANCH   8   9
BRANCH   8  11
ATOM     11  C   LIG d   1      -8.841  94.360 120.408  0.00  0.00     0.028 C 
ATOM     12  C   LIG d   1     -10.204  93.782 120.823  0.00  0.00     0.006 C 
ENDBRANCH   8  11
ENDBRANCH   7   8
ENDBRANCH   1   7
BRANCH   6  13
ATOM     13  N   LIG d   1      -4.348  93.879 118.718  0.00  0.00    -0.311 N 
ATOM     14  C   LIG d   1      -3.442  94.124 119.662  0.00  0.00     0.210 C 
ATOM     15  C   LIG d   1      -3.022  95.591 119.791  0.00  0.00     0.109 C 
ATOM     16  O   LIG d   1      -2.921  93.260 120.384  0.00  0.00    -0.276 OA
ATOM     17  H   LIG d   1      -4.692  94.634 118.157  0.00  0.00     0.149 HD
ENDBRANCH   6  13
BRANCH   5  18
ATOM     18  N   LIG d   1      -2.720  91.502 117.701  0.00  0.00     0.381 N 
ATOM     19  H   LIG d   1      -2.666  90.625 118.180  0.00  0.00    -0.090 HD
ATOM     20  H   LIG d   1      -2.395  92.222 118.323  0.00  0.00    -0.090 HD
ATOM     21  H   LIG d   1      -2.152  91.478 116.884  0.00  0.00    -0.090 HD
ENDBRANCH   5  18
BRANCH   3  22
ATOM     22  C   LIG d   1      -6.784  89.644 115.978  0.00  0.00     0.382 C 
ATOM     23  O   LIG d   1      -7.821  89.043 116.349  0.00  0.00    -0.241 OA
ATOM     24  O   LIG d   1      -6.280  89.372 114.872  0.00  0.00    -0.241 OA
ENDBRANCH   3  22
TORSDOF 7
ENDMDL
MODEL 3
REMARK VINA RESULT:      -5.6      1.553      4.900
REMARK  7 active torsions:
REMARK  status: ('A' for Active; 'I' for Inactive)
REMARK    1  A    between atoms: C_2  and  C_3 
REMARK    2  A    between atoms: C_3  and  O_6 
REMARK    3  A    between atoms: C_3  and  C_4 
REMARK    4  A    between atoms: C_7  and  O_6 
REMARK    5  A    between atoms: C_9  and  C_10 
REMARK    6  A    between atoms: N_15  and  C_14 
REMARK    7  A    between atoms: N_20  and  C_19 
REMARK       I    between atoms: C_22  and  N_20 
ROOT
ATOM      1  C   LIG d   1      -4.299  91.773 117.312  0.00  0.00     0.161 C 
ATOM      2  C   LIG d   1      -3.767  92.418 118.441  0.00  0.00     0.016 C 
ATOM      3  C   LIG d   1      -4.560  93.091 119.398  0.00  0.00     0.038 C 
ATOM      4  C   LIG d   1      -5.962  93.036 119.371  0.00  0.00     0.028 C 
ATOM      5  C   LIG d   1      -6.532  92.824 117.973  0.00  0.00    -0.047 C 
ATOM      6  C   LIG d   1      -5.833  91.607 117.325  0.00  0.00     0.091 C 
ENDROOT
BRANCH   1   7
ATOM      7  O   LIG d   1      -3.659  90.494 117.132  0.00  0.00    -0.368 OA
BRANCH   7   8
ATOM      8  C   LIG d   1      -2.543  90.211 118.013  0.00  0.00     0.119 C 
BRANCH   8   9
ATOM      9  C   LIG d   1      -1.417  89.606 117.153  0.00  0.00     0.028 C 
ATOM     10  C   LIG d   1      -0.187  90.526 117.066  0.00  0.00     0.006 C 
ENDBRANCH   8   9
BRANCH   8  11
ATOM     11  C   LIG d   1      -2.901  89.126 119.033  0.00  0.00     0.028 C 
ATOM     12  C   LIG d   1      -2.616  89.553 120.482  0.00  0.00     0.006 C 
ENDBRANCH   8  11
ENDBRANCH   7   8
ENDBRANCH   1   7
BRANCH   6  13
ATOM     13  N   LIG d   1      -6.273  91.381 115.923  0.00  0.00    -0.311 N 
ATOM     14  C   LIG d   1      -6.807  90.238 115.498  0.00  0.00     0.210 C 
ATOM     15  C   LIG d   1      -7.173  90.209 114.010  0.00  0.00     0.109 C 
ATOM     16  O   LIG d   1      -7.043  89.256 116.218  0.00  0.00    -0.276 OA
ATOM     17  H   LIG d   1      -6.147  92.137 115.278  0.00  0.00     0.149 HD
ENDBRANCH   6  13
BRANCH   5  18
ATOM     18  N   LIG d   1      -7.991  92.648 118.109  0.00  0.00     0.381 N 
ATOM     19  H   LIG d   1      -8.185  91.801 118.605  0.00  0.00    -0.090 HD
ATOM     20  H   LIG d   1      -8.396  92.577 117.192  0.00  0.00    -0.090 HD
ATOM     21  H   LIG d   1      -8.384  93.424 118.595  0.00  0.00    -0.090 HD
ENDBRANCH   5  18
BRANCH   3  22
ATOM     22  C   LIG d   1      -3.950  93.863 120.375  0.00  0.00     0.382 C 
ATOM     23  O   LIG d   1      -3.152  93.334 121.186  0.00  0.00    -0.241 OA
ATOM     24  O   LIG d   1      -4.222  95.074 120.484  0.00  0.00    -0.241 OA
ENDBRANCH   3  22
TORSDOF 7
ENDMDL
MODEL 4
REMARK VINA RESULT:      -5.5      2.162      4.373
REMARK  7 active torsions:
REMARK  status: ('A' for Active; 'I' for Inactive)
REMARK    1  A    between atoms: C_2  and  C_3 
REMARK    2  A    between atoms: C_3  and  O_6 
REMARK    3  A    between atoms: C_3  and  C_4 
REMARK    4  A    between atoms: C_7  and  O_6 
REMARK    5  A    between atoms: C_9  and  C_10 
REMARK    6  A    between atoms: N_15  and  C_14 
REMARK    7  A    between atoms: N_20  and  C_19 
REMARK       I    between atoms: C_22  and  N_20 
ROOT
ATOM      1  C   LIG d   1      -5.640  91.935 118.130  0.00  0.00     0.161 C 
ATOM      2  C   LIG d   1      -6.422  91.898 116.963  0.00  0.00     0.016 C 
ATOM      3  C   LIG d   1      -6.136  91.059 115.862  0.00  0.00     0.038 C 
ATOM      4  C   LIG d   1      -5.131  90.082 115.915  0.00  0.00     0.028 C 
ATOM      5  C   LIG d   1      -3.999  90.430 116.877  0.00  0.00    -0.047 C 
ATOM      6  C   LIG d   1      -4.605  90.798 118.251  0.00  0.00     0.091 C 
ENDROOT
BRANCH   1   7
ATOM      7  O   LIG d   1      -6.496  91.959 119.290  0.00  0.00    -0.368 OA
BRANCH   7   8
ATOM      8  C   LIG d   1      -6.590  93.226 119.986  0.00  0.00     0.119 C 
BRANCH   8   9
ATOM      9  C   LIG d   1      -7.934  93.871 119.594  0.00  0.00     0.028 C 
ATOM     10  C   LIG d   1      -7.756  95.060 118.634  0.00  0.00     0.006 C 
ENDBRANCH   8   9
BRANCH   8  11
ATOM     11  C   LIG d   1      -5.515  94.206 119.507  0.00  0.00     0.028 C 
ATOM     12  C   LIG d   1      -4.460  94.505 120.584  0.00  0.00     0.006 C 
ENDBRANCH   8  11
ENDBRANCH   7   8
ENDBRANCH   1   7
BRANCH   6  13
ATOM     13  N   LIG d   1      -3.572  91.232 119.227  0.00  0.00    -0.311 N 
ATOM     14  C   LIG d   1      -2.884  90.386 119.992  0.00  0.00     0.210 C 
ATOM     15  C   LIG d   1      -1.881  91.044 120.945  0.00  0.00     0.109 C 
ATOM     16  O   LIG d   1      -2.987  89.151 119.950  0.00  0.00    -0.276 OA
ATOM     17  H   LIG d   1      -3.402  92.216 119.304  0.00  0.00     0.149 HD
ENDBRANCH   6  13
BRANCH   5  18
ATOM     18  N   LIG d   1      -3.093  89.268 116.937  0.00  0.00     0.381 N 
ATOM     19  H   LIG d   1      -3.623  88.431 117.081  0.00  0.00    -0.090 HD
ATOM     20  H   LIG d   1      -2.468  89.383 117.716  0.00  0.00    -0.090 HD
ATOM     21  H   LIG d   1      -2.572  89.198 116.091  0.00  0.00    -0.090 HD
ENDBRANCH   5  18
BRANCH   3  22
ATOM     22  C   LIG d   1      -6.837  91.219 114.676  0.00  0.00     0.382 C 
ATOM     23  O   LIG d   1      -6.776  92.307 114.054  0.00  0.00    -0.241 OA
ATOM     24  O   LIG d   1      -7.564  90.305 114.243  0.00  0.00    -0.241 OA
ENDBRANCH   3  22
TORSDOF 7
ENDMDL
MODEL 5
REMARK VINA RESULT:      -5.3      1.395      1.667
REMARK  7 active torsions:
REMARK  status: ('A' for Active; 'I' for Inactive)
REMARK    1  A    between atoms: C_2  and  C_3 
REMARK    2  A    between atoms: C_3  and  O_6 
REMARK    3  A    between atoms: C_3  and  C_4 
REMARK    4  A    between atoms: C_7  and  O_6 
REMARK    5  A    between atoms: C_9  and  C_10 
REMARK    6  A    between atoms: N_15  and  C_14 
REMARK    7  A    between atoms: N_20  and  C_19 
REMARK       I    between atoms: C_22  and  N_20 
ROOT
ATOM      1  C   LIG d   1      -4.225  91.338 118.061  0.00  0.00     0.161 C 
ATOM      2  C   LIG d   1      -4.718  90.523 117.028  0.00  0.00     0.016 C 
ATOM      3  C   LIG d   1      -5.918  90.792 116.331  0.00  0.00     0.038 C 
ATOM      4  C   LIG d   1      -6.634  91.984 116.518  0.00  0.00     0.028 C 
ATOM      5  C   LIG d   1      -6.446  92.592 117.904  0.00  0.00    -0.047 C 
ATOM      6  C   LIG d   1      -4.934  92.701 118.204  0.00  0.00     0.091 C 
ENDROOT
BRANCH   1   7
ATOM      7  O   LIG d   1      -2.805  91.526 117.900  0.00  0.00    -0.368 OA
BRANCH   7   8
ATOM      8  C   LIG d   1      -1.973  91.064 118.993  0.00  0.00     0.119 C 
BRANCH   8   9
ATOM      9  C   LIG d   1      -0.770  92.021 119.095  0.00  0.00     0.028 C 
ATOM     10  C   LIG d   1      -0.975  93.311 118.283  0.00  0.00     0.006 C 
ENDBRANCH   8   9
BRANCH   8  11
ATOM     11  C   LIG d   1      -1.373  89.687 118.693  0.00  0.00     0.028 C 
ATOM     12  C   LIG d   1      -1.211  89.423 117.188  0.00  0.00     0.006 C 
ENDBRANCH   8  11
ENDBRANCH   7   8
ENDBRANCH   1   7
BRANCH   6  13
ATOM     13  N   LIG d   1      -4.663  93.208 119.574  0.00  0.00    -0.311 N 
ATOM     14  C   LIG d   1      -4.133  94.405 119.822  0.00  0.00     0.210 C 
ATOM     15  C   LIG d   1      -3.918  94.723 121.305  0.00  0.00     0.109 C 
ATOM     16  O   LIG d   1      -3.851  95.246 118.956  0.00  0.00    -0.276 OA
ATOM     17  H   LIG d   1      -4.891  92.603 120.338  0.00  0.00     0.149 HD
ENDBRANCH   6  13
BRANCH   5  18
ATOM     18  N   LIG d   1      -7.134  93.896 117.915  0.00  0.00     0.381 N 
ATOM     19  H   LIG d   1      -7.979  93.839 117.382  0.00  0.00    -0.090 HD
ATOM     20  H   LIG d   1      -6.537  94.582 117.488  0.00  0.00    -0.090 HD
ATOM     21  H   LIG d   1      -7.342  94.164 118.852  0.00  0.00    -0.090 HD
ENDBRANCH   5  18
BRANCH   3  22
ATOM     22  C   LIG d   1      -6.435  89.843 115.462  0.00  0.00     0.382 C 
ATOM     23  O   LIG d   1      -5.709  89.354 114.563  0.00  0.00    -0.241 OA
ATOM     24  O   LIG d   1      -7.631  89.502 115.538  0.00  0.00    -0.241 OA
ENDBRANCH   3  22
TORSDOF 7
ENDMDL
MODEL 6
REMARK VINA RESULT:      -4.9      2.090      5.069
REMARK  7 active torsions:
REMARK  status: ('A' for Active; 'I' for Inactive)
REMARK    1  A    between atoms: C_2  and  C_3 
REMARK    2  A    between atoms: C_3  and  O_6 
REMARK    3  A    between atoms: C_3  and  C_4 
REMARK    4  A    between atoms: C_7  and  O_6 
REMARK    5  A    between atoms: C_9  and  C_10 
REMARK    6  A    between atoms: N_15  and  C_14 
REMARK    7  A    between atoms: N_20  and  C_19 
REMARK       I    between atoms: C_22  and  N_20 
ROOT
ATOM      1  C   LIG d   1      -4.624  91.055 117.505  0.00  0.00     0.161 C 
ATOM      2  C   LIG d   1      -3.498  90.222 117.400  0.00  0.00     0.016 C 
ATOM      3  C   LIG d   1      -2.319  90.407 118.158  0.00  0.00     0.038 C 
ATOM      4  C   LIG d   1      -2.242  91.355 119.189  0.00  0.00     0.028 C 
ATOM      5  C   LIG d   1      -3.172  92.547 118.987  0.00  0.00    -0.047 C 
ATOM      6  C   LIG d   1      -4.600  92.027 118.703  0.00  0.00     0.091 C 
ENDROOT
BRANCH   1   7
ATOM      7  O   LIG d   1      -5.823  90.256 117.531  0.00  0.00    -0.368 OA
BRANCH   7   8
ATOM      8  C   LIG d   1      -6.844  90.606 116.565  0.00  0.00     0.119 C 
BRANCH   8   9
ATOM      9  C   LIG d   1      -7.134  89.348 115.722  0.00  0.00     0.028 C 
ATOM     10  C   LIG d   1      -8.420  88.630 116.164  0.00  0.00     0.006 C 
ENDBRANCH   8   9
BRANCH   8  11
ATOM     11  C   LIG d   1      -6.333  91.652 115.569  0.00  0.00     0.028 C 
ATOM     12  C   LIG d   1      -6.788  91.374 114.127  0.00  0.00     0.006 C 
ENDBRANCH   8  11
ENDBRANCH   7   8
ENDBRANCH   1   7
BRANCH   6  13
ATOM     13  N   LIG d   1      -5.556  93.126 118.410  0.00  0.00    -0.311 N 
ATOM     14  C   LIG d   1      -6.638  93.372 119.146  0.00  0.00     0.210 C 
ATOM     15  C   LIG d   1      -7.500  94.541 118.658  0.00  0.00     0.109 C 
ATOM     16  O   LIG d   1      -6.949  92.754 120.175  0.00  0.00    -0.276 OA
ATOM     17  H   LIG d   1      -5.363  93.698 117.611  0.00  0.00     0.149 HD
ENDBRANCH   6  13
BRANCH   5  18
ATOM     18  N   LIG d   1      -3.092  93.385 120.198  0.00  0.00     0.381 N 
ATOM     19  H   LIG d   1      -3.912  93.954 120.271  0.00  0.00    -0.090 HD
ATOM     20  H   LIG d   1      -2.294  93.991 120.122  0.00  0.00    -0.090 HD
ATOM     21  H   LIG d   1      -3.005  92.809 121.007  0.00  0.00    -0.090 HD
ENDBRANCH   5  18
BRANCH   3  22
ATOM     22  C   LIG d   1      -1.187  89.665 117.860  0.00  0.00     0.382 C 
ATOM     23  O   LIG d   1      -0.397  89.330 118.776  0.00  0.00    -0.241 OA
ATOM     24  O   LIG d   1      -0.921  89.363 116.681  0.00  0.00    -0.241 OA
ENDBRANCH   3  22
TORSDOF 7
ENDMDL
MODEL 7
REMARK VINA RESULT:      -4.9     12.509     13.906
REMARK  7 active torsions:
REMARK  status: ('A' for Active; 'I' for Inactive)
REMARK    1  A    between atoms: C_2  and  C_3 
REMARK    2  A    between atoms: C_3  and  O_6 
REMARK    3  A    between atoms: C_3  and  C_4 
REMARK    4  A    between atoms: C_7  and  O_6 
REMARK    5  A    between atoms: C_9  and  C_10 
REMARK    6  A    between atoms: N_15  and  C_14 
REMARK    7  A    between atoms: N_20  and  C_19 
REMARK       I    between atoms: C_22  and  N_20 
ROOT
ATOM      1  C   LIG d   1      -7.060  77.767 117.595  0.00  0.00     0.161 C 
ATOM      2  C   LIG d   1      -8.354  78.069 118.054  0.00  0.00     0.016 C 
ATOM      3  C   LIG d   1      -8.694  79.294 118.672  0.00  0.00     0.038 C 
ATOM      4  C   LIG d   1      -7.793  80.367 118.738  0.00  0.00     0.028 C 
ATOM      5  C   LIG d   1      -6.331  79.931 118.742  0.00  0.00    -0.047 C 
ATOM      6  C   LIG d   1      -6.091  78.967 117.558  0.00  0.00     0.091 C 
ENDROOT
BRANCH   1   7
ATOM      7  O   LIG d   1      -7.135  77.143 116.298  0.00  0.00    -0.368 OA
BRANCH   7   8
ATOM      8  C   LIG d   1      -7.113  75.694 116.286  0.00  0.00     0.119 C 
BRANCH   8   9
ATOM      9  C   LIG d   1      -6.448  75.253 114.968  0.00  0.00     0.028 C 
ATOM     10  C   LIG d   1      -4.940  75.553 114.942  0.00  0.00     0.006 C 
ENDBRANCH   8   9
BRANCH   8  11
ATOM     11  C   LIG d   1      -8.530  75.116 116.239  0.00  0.00     0.028 C 
ATOM     12  C   LIG d   1      -8.559  73.593 116.442  0.00  0.00     0.006 C 
ENDBRANCH   8  11
ENDBRANCH   7   8
ENDBRANCH   1   7
BRANCH   6  13
ATOM     13  N   LIG d   1      -4.707  78.427 117.538  0.00  0.00    -0.311 N 
ATOM     14  C   LIG d   1      -3.722  78.959 116.816  0.00  0.00     0.210 C 
ATOM     15  C   LIG d   1      -2.377  78.235 116.924  0.00  0.00     0.109 C 
ATOM     16  O   LIG d   1      -3.828  79.981 116.121  0.00  0.00    -0.276 OA
ATOM     17  H   LIG d   1      -4.525  77.617 118.098  0.00  0.00     0.149 HD
ENDBRANCH   6  13
BRANCH   5  18
ATOM     18  N   LIG d   1      -5.503  81.149 118.674  0.00  0.00     0.381 N 
ATOM     19  H   LIG d   1      -5.809  81.806 119.363  0.00  0.00    -0.090 HD
ATOM     20  H   LIG d   1      -5.614  81.568 117.767  0.00  0.00    -0.090 HD
ATOM     21  H   LIG d   1      -4.545  80.919 118.826  0.00  0.00    -0.090 HD
ENDBRANCH   5  18
BRANCH   3  22
ATOM     22  C   LIG d   1      -9.937  79.441 119.268  0.00  0.00     0.382 C 
ATOM     23  O   LIG d   1     -10.855  78.624 119.013  0.00  0.00    -0.241 OA
ATOM     24  O   LIG d   1     -10.166  80.404 120.024  0.00  0.00    -0.241 OA
ENDBRANCH   3  22
TORSDOF 7
ENDMDL
MODEL 8
REMARK VINA RESULT:      -4.9      4.333      7.133
REMARK  7 active torsions:
REMARK  status: ('A' for Active; 'I' for Inactive)
REMARK    1  A    between atoms: C_2  and  C_3 
REMARK    2  A    between atoms: C_3  and  O_6 
REMARK    3  A    between atoms: C_3  and  C_4 
REMARK    4  A    between atoms: C_7  and  O_6 
REMARK    5  A    between atoms: C_9  and  C_10 
REMARK    6  A    between atoms: N_15  and  C_14 
REMARK    7  A    between atoms: N_20  and  C_19 
REMARK       I    between atoms: C_22  and  N_20 
ROOT
ATOM      1  C   LIG d   1       0.905  88.808 116.524  0.00  0.00     0.161 C 
ATOM      2  C   LIG d   1      -0.469  88.911 116.796  0.00  0.00     0.016 C 
ATOM      3  C   LIG d   1      -1.080  90.089 117.285  0.00  0.00     0.038 C 
ATOM      4  C   LIG d   1      -0.377  91.298 117.394  0.00  0.00     0.028 C 
ATOM      5  C   LIG d   1       1.121  91.110 117.611  0.00  0.00    -0.047 C 
ATOM      6  C   LIG d   1       1.668  90.149 116.531  0.00  0.00     0.091 C 
ENDROOT
BRANCH   1   7
ATOM      7  O   LIG d   1       1.106  88.123 115.272  0.00  0.00    -0.368 OA
BRANCH   7   8
ATOM      8  C   LIG d   1       1.482  86.727 115.362  0.00  0.00     0.119 C 
BRANCH   8   9
ATOM      9  C   LIG d   1       2.786  86.547 114.560  0.00  0.00     0.028 C 
ATOM     10  C   LIG d   1       2.690  87.138 113.143  0.00  0.00     0.006 C 
ENDBRANCH   8   9
BRANCH   8  11
ATOM     11  C   LIG d   1       0.454  85.827 114.671  0.00  0.00     0.028 C 
ATOM     12  C   LIG d   1       0.736  84.331 114.879  0.00  0.00     0.006 C 
ENDBRANCH   8  11
ENDBRANCH   7   8
ENDBRANCH   1   7
BRANCH   6  13
ATOM     13  N   LIG d   1       3.110  89.845 116.721  0.00  0.00    -0.311 N 
ATOM     14  C   LIG d   1       4.002  89.873 115.732  0.00  0.00     0.210 C 
ATOM     15  C   LIG d   1       5.432  89.507 116.140  0.00  0.00     0.109 C 
ATOM     16  O   LIG d   1       3.750  90.196 114.561  0.00  0.00    -0.276 OA
ATOM     17  H   LIG d   1       3.408  89.603 117.646  0.00  0.00     0.149 HD
ENDBRANCH   6  13
BRANCH   5  18
ATOM     18  N   LIG d   1       1.748  92.445 117.567  0.00  0.00     0.381 N 
ATOM     19  H   LIG d   1       2.219  92.626 118.431  0.00  0.00    -0.090 HD
ATOM     20  H   LIG d   1       1.030  93.138 117.449  0.00  0.00    -0.090 HD
ATOM     21  H   LIG d   1       2.395  92.494 116.811  0.00  0.00    -0.090 HD
ENDBRANCH   5  18
BRANCH   3  22
ATOM     22  C   LIG d   1      -2.399  90.053 117.710  0.00  0.00     0.382 C 
ATOM     23  O   LIG d   1      -2.922  91.076 118.215  0.00  0.00    -0.241 OA
ATOM     24  O   LIG d   1      -3.059  89.000 117.636  0.00  0.00    -0.241 OA
ENDBRANCH   3  22
TORSDOF 7
ENDMDL
MODEL 9
REMARK VINA RESULT:      -4.9      3.807      6.255
REMARK  7 active torsions:
REMARK  status: ('A' for Active; 'I' for Inactive)
REMARK    1  A    between atoms: C_2  and  C_3 
REMARK    2  A    between atoms: C_3  and  O_6 
REMARK    3  A    between atoms: C_3  and  C_4 
REMARK    4  A    between atoms: C_7  and  O_6 
REMARK    5  A    between atoms: C_9  and  C_10 
REMARK    6  A    between atoms: N_15  and  C_14 
REMARK    7  A    between atoms: N_20  and  C_19 
REMARK       I    between atoms: C_22  and  N_20 
ROOT
ATOM      1  C   LIG d   1       0.654  89.371 116.845  0.00  0.00     0.161 C 
ATOM      2  C   LIG d   1      -0.721  89.081 116.875  0.00  0.00     0.016 C 
ATOM      3  C   LIG d   1      -1.673  89.894 117.531  0.00  0.00     0.038 C 
ATOM      4  C   LIG d   1      -1.333  91.141 118.076  0.00  0.00     0.028 C 
ATOM      5  C   LIG d   1       0.126  91.236 118.510  0.00  0.00    -0.047 C 
ATOM      6  C   LIG d   1       1.027  90.784 117.338  0.00  0.00     0.091 C 
ENDROOT
BRANCH   1   7
ATOM      7  O   LIG d   1       1.170  89.151 115.517  0.00  0.00    -0.368 OA
BRANCH   7   8
ATOM      8  C   LIG d   1       2.183  88.123 115.389  0.00  0.00     0.119 C 
BRANCH   8   9
ATOM      9  C   LIG d   1       3.062  88.488 114.177  0.00  0.00     0.028 C 
ATOM     10  C   LIG d   1       4.068  89.606 114.498  0.00  0.00     0.006 C 
ENDBRANCH   8   9
BRANCH   8  11
ATOM     11  C   LIG d   1       1.560  86.767 115.044  0.00  0.00     0.028 C 
ATOM     12  C   LIG d   1       2.071  85.631 115.944  0.00  0.00     0.006 C 
ENDBRANCH   8  11
ENDBRANCH   7   8
ENDBRANCH   1   7
BRANCH   6  13
ATOM     13  N   LIG d   1       2.467  90.766 117.706  0.00  0.00    -0.311 N 
ATOM     14  C   LIG d   1       3.282  91.804 117.529  0.00  0.00     0.210 C 
ATOM     15  C   LIG d   1       4.734  91.568 117.957  0.00  0.00     0.109 C 
ATOM     16  O   LIG d   1       2.934  92.910 117.088  0.00  0.00    -0.276 OA
ATOM     17  H   LIG d   1       2.827  89.919 118.099  0.00  0.00     0.149 HD
ENDBRANCH   6  13
BRANCH   5  18
ATOM     18  N   LIG d   1       0.377  92.628 118.929  0.00  0.00     0.381 N 
ATOM     19  H   LIG d   1       0.347  93.232 118.133  0.00  0.00    -0.090 HD
ATOM     20  H   LIG d   1       1.294  92.684 119.335  0.00  0.00    -0.090 HD
ATOM     21  H   LIG d   1      -0.307  92.911 119.596  0.00  0.00    -0.090 HD
ENDBRANCH   5  18
BRANCH   3  22
ATOM     22  C   LIG d   1      -2.975  89.443 117.682  0.00  0.00     0.382 C 
ATOM     23  O   LIG d   1      -3.807  89.608 116.757  0.00  0.00    -0.241 OA
ATOM     24  O   LIG d   1      -3.341  88.912 118.748  0.00  0.00    -0.241 OA
ENDBRANCH   3  22
TORSDOF 7
ENDMDL
