MODEL 1
REMARK VINA RESULT:      -5.4      0.000      0.000
REMARK  7 active torsions:
REMARK  status: ('A' for Active; 'I' for Inactive)
REMARK    1  A    between atoms: C_2  and  C_3 
REMARK    2  A    between atoms: C_3  and  O_6 
REMARK    3  A    between atoms: C_3  and  C_4 
REMARK    4  A    between atoms: C_7  and  O_6 
REMARK    5  A    between atoms: C_9  and  C_10 
REMARK    6  A    between atoms: N_15  and  C_14 
REMARK    7  A    between atoms: N_20  and  C_19 
REMARK       I    between atoms: C_22  and  N_20 
ROOT
ATOM      1  C   LIG d   1      -6.145  77.802 117.104  0.00  0.00     0.161 C 
ATOM      2  C   LIG d   1      -7.524  77.658 117.331  0.00  0.00     0.016 C 
ATOM      3  C   LIG d   1      -8.328  78.671 117.903  0.00  0.00     0.038 C 
ATOM      4  C   LIG d   1      -7.833  79.960 118.149  0.00  0.00     0.028 C 
ATOM      5  C   LIG d   1      -6.330  79.994 118.404  0.00  0.00    -0.047 C 
ATOM      6  C   LIG d   1      -5.610  79.241 117.263  0.00  0.00     0.091 C 
ENDROOT
BRANCH   1   7
ATOM      7  O   LIG d   1      -5.807  77.283 115.802  0.00  0.00    -0.368 OA
BRANCH   7   8
ATOM      8  C   LIG d   1      -4.951  76.115 115.784  0.00  0.00     0.119 C 
BRANCH   8   9
ATOM      9  C   LIG d   1      -5.776  74.945 115.212  0.00  0.00     0.028 C 
ATOM     10  C   LIG d   1      -6.517  74.159 116.306  0.00  0.00     0.006 C 
ENDBRANCH   8   9
BRANCH   8  11
ATOM     11  C   LIG d   1      -4.567  75.684 117.203  0.00  0.00     0.028 C 
ATOM     12  C   LIG d   1      -3.065  75.393 117.351  0.00  0.00     0.006 C 
ENDBRANCH   8  11
ENDBRANCH   7   8
ENDBRANCH   1   7
BRANCH   6  13
ATOM     13  N   LIG d   1      -4.142  79.154 117.479  0.00  0.00    -0.311 N 
ATOM     14  C   LIG d   1      -3.246  79.365 116.516  0.00  0.00     0.210 C 
ATOM     15  C   LIG d   1      -1.785  79.205 116.947  0.00  0.00     0.109 C 
ATOM     16  O   LIG d   1      -3.521  79.701 115.355  0.00  0.00    -0.276 OA
ATOM     17  H   LIG d   1      -3.830  78.917 118.400  0.00  0.00     0.149 HD
ENDBRANCH   6  13
BRANCH   5  18
ATOM     18  N   LIG d   1      -5.927  81.409 118.508  0.00  0.00     0.381 N 
ATOM     19  H   LIG d   1      -5.583  81.729 117.625  0.00  0.00    -0.090 HD
ATOM     20  H   LIG d   1      -5.187  81.488 119.183  0.00  0.00    -0.090 HD
ATOM     21  H   LIG d   1      -6.704  81.965 118.790  0.00  0.00    -0.090 HD
ENDBRANCH   5  18
BRANCH   3  22
ATOM     22  C   LIG d   1      -9.634  78.385 118.272  0.00  0.00     0.382 C 
ATOM     23  O   LIG d   1     -10.226  77.401 117.768  0.00  0.00    -0.241 OA
ATOM     24  O   LIG d   1     -10.241  79.124 119.070  0.00  0.00    -0.241 OA
ENDBRANCH   3  22
TORSDOF 7
ENDMDL
MODEL 2
REMARK VINA RESULT:      -5.3     12.862     14.878
REMARK  7 active torsions:
REMARK  status: ('A' for Active; 'I' for Inactive)
REMARK    1  A    between atoms: C_2  and  C_3 
REMARK    2  A    between atoms: C_3  and  O_6 
REMARK    3  A    between atoms: C_3  and  C_4 
REMARK    4  A    between atoms: C_7  and  O_6 
REMARK    5  A    between atoms: C_9  and  C_10 
REMARK    6  A    between atoms: N_15  and  C_14 
REMARK    7  A    between atoms: N_20  and  C_19 
REMARK       I    between atoms: C_22  and  N_20 
ROOT
ATOM      1  C   LIG d   1      -6.289  91.766 117.963  0.00  0.00     0.161 C 
ATOM      2  C   LIG d   1      -6.633  91.026 116.819  0.00  0.00     0.016 C 
ATOM      3  C   LIG d   1      -7.109  91.614 115.625  0.00  0.00     0.038 C 
ATOM      4  C   LIG d   1      -7.131  93.005 115.442  0.00  0.00     0.028 C 
ATOM      5  C   LIG d   1      -7.271  93.786 116.744  0.00  0.00    -0.047 C 
ATOM      6  C   LIG d   1      -6.200  93.291 117.744  0.00  0.00     0.091 C 
ENDROOT
BRANCH   1   7
ATOM      7  O   LIG d   1      -5.054  91.267 118.515  0.00  0.00    -0.368 OA
BRANCH   7   8
ATOM      8  C   LIG d   1      -3.913  91.262 117.623  0.00  0.00     0.119 C 
BRANCH   8   9
ATOM      9  C   LIG d   1      -3.371  89.820 117.573  0.00  0.00     0.028 C 
ATOM     10  C   LIG d   1      -1.836  89.773 117.491  0.00  0.00     0.006 C 
ENDBRANCH   8   9
BRANCH   8  11
ATOM     11  C   LIG d   1      -2.765  92.108 118.182  0.00  0.00     0.028 C 
ATOM     12  C   LIG d   1      -2.590  93.440 117.437  0.00  0.00     0.006 C 
ENDBRANCH   8  11
ENDBRANCH   7   8
ENDBRANCH   1   7
BRANCH   6  13
ATOM     13  N   LIG d   1      -6.321  93.944 119.073  0.00  0.00    -0.311 N 
ATOM     14  C   LIG d   1      -5.668  95.056 119.406  0.00  0.00     0.210 C 
ATOM     15  C   LIG d   1      -5.919  95.551 120.833  0.00  0.00     0.109 C 
ATOM     16  O   LIG d   1      -4.929  95.696 118.643  0.00  0.00    -0.276 OA
ATOM     17  H   LIG d   1      -6.925  93.507 119.743  0.00  0.00     0.149 HD
ENDBRANCH   6  13
BRANCH   5  18
ATOM     18  N   LIG d   1      -7.141  95.219 116.421  0.00  0.00     0.381 N 
ATOM     19  H   LIG d   1      -7.511  95.395 115.508  0.00  0.00    -0.090 HD
ATOM     20  H   LIG d   1      -6.167  95.465 116.419  0.00  0.00    -0.090 HD
ATOM     21  H   LIG d   1      -7.628  95.766 117.096  0.00  0.00    -0.090 HD
ENDBRANCH   5  18
BRANCH   3  22
ATOM     22  C   LIG d   1      -7.608  90.808 114.613  0.00  0.00     0.382 C 
ATOM     23  O   LIG d   1      -7.237  89.613 114.523  0.00  0.00    -0.241 OA
ATOM     24  O   LIG d   1      -8.390  91.274 113.763  0.00  0.00    -0.241 OA
ENDBRANCH   3  22
TORSDOF 7
ENDMDL
MODEL 3
REMARK VINA RESULT:      -5.3     19.331     21.705
REMARK  7 active torsions:
REMARK  status: ('A' for Active; 'I' for Inactive)
REMARK    1  A    between atoms: C_2  and  C_3 
REMARK    2  A    between atoms: C_3  and  O_6 
REMARK    3  A    between atoms: C_3  and  C_4 
REMARK    4  A    between atoms: C_7  and  O_6 
REMARK    5  A    between atoms: C_9  and  C_10 
REMARK    6  A    between atoms: N_15  and  C_14 
REMARK    7  A    between atoms: N_20  and  C_19 
REMARK       I    between atoms: C_22  and  N_20 
ROOT
ATOM      1  C   LIG d   1       2.368  58.735 117.299  0.00  0.00     0.161 C 
ATOM      2  C   LIG d   1       1.265  59.583 117.105  0.00  0.00     0.016 C 
ATOM      3  C   LIG d   1      -0.074  59.129 117.097  0.00  0.00     0.038 C 
ATOM      4  C   LIG d   1      -0.411  57.810 117.434  0.00  0.00     0.028 C 
ATOM      5  C   LIG d   1       0.700  56.807 117.140  0.00  0.00    -0.047 C 
ATOM      6  C   LIG d   1       2.014  57.312 117.778  0.00  0.00     0.091 C 
ENDROOT
BRANCH   1   7
ATOM      7  O   LIG d   1       3.305  59.351 118.205  0.00  0.00    -0.368 OA
BRANCH   7   8
ATOM      8  C   LIG d   1       4.340  60.163 117.598  0.00  0.00     0.119 C 
BRANCH   8   9
ATOM      9  C   LIG d   1       5.570  59.260 117.383  0.00  0.00     0.028 C 
ATOM     10  C   LIG d   1       6.864  60.068 117.187  0.00  0.00     0.006 C 
ENDBRANCH   8   9
BRANCH   8  11
ATOM     11  C   LIG d   1       4.810  61.268 118.548  0.00  0.00     0.028 C 
ATOM     12  C   LIG d   1       4.707  60.866 120.028  0.00  0.00     0.006 C 
ENDBRANCH   8  11
ENDBRANCH   7   8
ENDBRANCH   1   7
BRANCH   6  13
ATOM     13  N   LIG d   1       3.170  56.432 117.468  0.00  0.00    -0.311 N 
ATOM     14  C   LIG d   1       3.922  55.852 118.402  0.00  0.00     0.210 C 
ATOM     15  C   LIG d   1       5.076  55.000 117.865  0.00  0.00     0.109 C 
ATOM     16  O   LIG d   1       3.722  55.936 119.623  0.00  0.00    -0.276 OA
ATOM     17  H   LIG d   1       3.384  56.284 116.501  0.00  0.00     0.149 HD
ENDBRANCH   6  13
BRANCH   5  18
ATOM     18  N   LIG d   1       0.268  55.498 117.666  0.00  0.00     0.381 N 
ATOM     19  H   LIG d   1       0.627  55.369 118.591  0.00  0.00    -0.090 HD
ATOM     20  H   LIG d   1       0.642  54.773 117.079  0.00  0.00    -0.090 HD
ATOM     21  H   LIG d   1      -0.727  55.446 117.678  0.00  0.00    -0.090 HD
ENDBRANCH   5  18
BRANCH   3  22
ATOM     22  C   LIG d   1      -1.089  59.990 116.709  0.00  0.00     0.382 C 
ATOM     23  O   LIG d   1      -1.608  59.876 115.572  0.00  0.00    -0.241 OA
ATOM     24  O   LIG d   1      -1.463  60.907 117.465  0.00  0.00    -0.241 OA
ENDBRANCH   3  22
TORSDOF 7
ENDMDL
MODEL 4
REMARK VINA RESULT:      -5.2     19.109     21.236
REMARK  7 active torsions:
REMARK  status: ('A' for Active; 'I' for Inactive)
REMARK    1  A    between atoms: C_2  and  C_3 
REMARK    2  A    between atoms: C_3  and  O_6 
REMARK    3  A    between atoms: C_3  and  C_4 
REMARK    4  A    between atoms: C_7  and  O_6 
REMARK    5  A    between atoms: C_9  and  C_10 
REMARK    6  A    between atoms: N_15  and  C_14 
REMARK    7  A    between atoms: N_20  and  C_19 
REMARK       I    between atoms: C_22  and  N_20 
ROOT
ATOM      1  C   LIG d   1       0.045  57.671 117.855  0.00  0.00     0.161 C 
ATOM      2  C   LIG d   1      -1.290  57.804 118.271  0.00  0.00     0.016 C 
ATOM      3  C   LIG d   1      -2.207  58.698 117.671  0.00  0.00     0.038 C 
ATOM      4  C   LIG d   1      -1.890  59.414 116.507  0.00  0.00     0.028 C 
ATOM      5  C   LIG d   1      -0.398  59.690 116.353  0.00  0.00    -0.047 C 
ATOM      6  C   LIG d   1       0.378  58.363 116.516  0.00  0.00     0.091 C 
ENDROOT
BRANCH   1   7
ATOM      7  O   LIG d   1       0.403  56.276 117.799  0.00  0.00    -0.368 OA
BRANCH   7   8
ATOM      8  C   LIG d   1       0.648  55.630 119.073  0.00  0.00     0.119 C 
BRANCH   8   9
ATOM      9  C   LIG d   1       1.896  56.287 119.693  0.00  0.00     0.028 C 
ATOM     10  C   LIG d   1       3.180  55.488 119.415  0.00  0.00     0.006 C 
ENDBRANCH   8   9
BRANCH   8  11
ATOM     11  C   LIG d   1       1.017  54.155 118.887  0.00  0.00     0.028 C 
ATOM     12  C   LIG d   1       0.582  53.599 117.522  0.00  0.00     0.006 C 
ENDBRANCH   8  11
ENDBRANCH   7   8
ENDBRANCH   1   7
BRANCH   6  13
ATOM     13  N   LIG d   1       1.850  58.557 116.463  0.00  0.00    -0.311 N 
ATOM     14  C   LIG d   1       2.543  59.174 117.419  0.00  0.00     0.210 C 
ATOM     15  C   LIG d   1       4.049  59.283 117.157  0.00  0.00     0.109 C 
ATOM     16  O   LIG d   1       2.059  59.612 118.473  0.00  0.00    -0.276 OA
ATOM     17  H   LIG d   1       2.328  58.204 115.657  0.00  0.00     0.149 HD
ENDBRANCH   6  13
BRANCH   5  18
ATOM     18  N   LIG d   1      -0.195  60.320 115.035  0.00  0.00     0.381 N 
ATOM     19  H   LIG d   1      -1.062  60.351 114.537  0.00  0.00    -0.090 HD
ATOM     20  H   LIG d   1       0.453  59.765 114.505  0.00  0.00    -0.090 HD
ATOM     21  H   LIG d   1       0.164  61.243 115.149  0.00  0.00    -0.090 HD
ENDBRANCH   5  18
BRANCH   3  22
ATOM     22  C   LIG d   1      -3.444  58.911 118.259  0.00  0.00     0.382 C 
ATOM     23  O   LIG d   1      -3.797  58.220 119.245  0.00  0.00    -0.241 OA
ATOM     24  O   LIG d   1      -4.230  59.756 117.789  0.00  0.00    -0.241 OA
ENDBRANCH   3  22
TORSDOF 7
ENDMDL
MODEL 5
REMARK VINA RESULT:      -5.1     12.919     15.120
REMARK  7 active torsions:
REMARK  status: ('A' for Active; 'I' for Inactive)
REMARK    1  A    between atoms: C_2  and  C_3 
REMARK    2  A    between atoms: C_3  and  O_6 
REMARK    3  A    between atoms: C_3  and  C_4 
REMARK    4  A    between atoms: C_7  and  O_6 
REMARK    5  A    between atoms: C_9  and  C_10 
REMARK    6  A    between atoms: N_15  and  C_14 
REMARK    7  A    between atoms: N_20  and  C_19 
REMARK       I    between atoms: C_22  and  N_20 
ROOT
ATOM      1  C   LIG d   1      -5.848  93.140 116.414  0.00  0.00     0.161 C 
ATOM      2  C   LIG d   1      -6.927  92.417 115.880  0.00  0.00     0.016 C 
ATOM      3  C   LIG d   1      -6.915  91.014 115.709  0.00  0.00     0.038 C 
ATOM      4  C   LIG d   1      -5.874  90.215 116.206  0.00  0.00     0.028 C 
ATOM      5  C   LIG d   1      -4.540  90.948 116.297  0.00  0.00    -0.047 C 
ATOM      6  C   LIG d   1      -4.747  92.275 117.063  0.00  0.00     0.091 C 
ENDROOT
BRANCH   1   7
ATOM      7  O   LIG d   1      -6.333  94.121 117.353  0.00  0.00    -0.368 OA
BRANCH   7   8
ATOM      8  C   LIG d   1      -7.013  93.601 118.522  0.00  0.00     0.119 C 
BRANCH   8   9
ATOM      9  C   LIG d   1      -8.383  94.301 118.610  0.00  0.00     0.028 C 
ATOM     10  C   LIG d   1      -8.557  95.387 117.535  0.00  0.00     0.006 C 
ENDBRANCH   8   9
BRANCH   8  11
ATOM     11  C   LIG d   1      -6.278  93.985 119.810  0.00  0.00     0.028 C 
ATOM     12  C   LIG d   1      -5.384  95.224 119.639  0.00  0.00     0.006 C 
ENDBRANCH   8  11
ENDBRANCH   7   8
ENDBRANCH   1   7
BRANCH   6  13
ATOM     13  N   LIG d   1      -3.509  93.094 117.125  0.00  0.00    -0.311 N 
ATOM     14  C   LIG d   1      -2.692  93.110 118.177  0.00  0.00     0.210 C 
ATOM     15  C   LIG d   1      -1.482  94.039 118.042  0.00  0.00     0.109 C 
ATOM     16  O   LIG d   1      -2.839  92.420 119.197  0.00  0.00    -0.276 OA
ATOM     17  H   LIG d   1      -3.297  93.661 116.327  0.00  0.00     0.149 HD
ENDBRANCH   6  13
BRANCH   5  18
ATOM     18  N   LIG d   1      -3.579  90.044 116.957  0.00  0.00     0.381 N 
ATOM     19  H   LIG d   1      -3.117  90.526 117.702  0.00  0.00    -0.090 HD
ATOM     20  H   LIG d   1      -2.885  89.762 116.287  0.00  0.00    -0.090 HD
ATOM     21  H   LIG d   1      -4.053  89.243 117.312  0.00  0.00    -0.090 HD
ENDBRANCH   5  18
BRANCH   3  22
ATOM     22  C   LIG d   1      -7.936  90.399 115.001  0.00  0.00     0.382 C 
ATOM     23  O   LIG d   1      -8.222  89.198 115.227  0.00  0.00    -0.241 OA
ATOM     24  O   LIG d   1      -8.545  91.016 114.107  0.00  0.00    -0.241 OA
ENDBRANCH   3  22
TORSDOF 7
ENDMDL
MODEL 6
REMARK VINA RESULT:      -5.1      2.488      6.015
REMARK  7 active torsions:
REMARK  status: ('A' for Active; 'I' for Inactive)
REMARK    1  A    between atoms: C_2  and  C_3 
REMARK    2  A    between atoms: C_3  and  O_6 
REMARK    3  A    between atoms: C_3  and  C_4 
REMARK    4  A    between atoms: C_7  and  O_6 
REMARK    5  A    between atoms: C_9  and  C_10 
REMARK    6  A    between atoms: N_15  and  C_14 
REMARK    7  A    between atoms: N_20  and  C_19 
REMARK       I    between atoms: C_22  and  N_20 
ROOT
ATOM      1  C   LIG d   1      -5.967  77.516 117.214  0.00  0.00     0.161 C 
ATOM      2  C   LIG d   1      -5.256  77.444 116.005  0.00  0.00     0.016 C 
ATOM      3  C   LIG d   1      -5.069  76.243 115.283  0.00  0.00     0.038 C 
ATOM      4  C   LIG d   1      -5.713  75.051 115.646  0.00  0.00     0.028 C 
ATOM      5  C   LIG d   1      -6.028  74.963 117.136  0.00  0.00    -0.047 C 
ATOM      6  C   LIG d   1      -6.770  76.247 117.569  0.00  0.00     0.091 C 
ENDROOT
BRANCH   1   7
ATOM      7  O   LIG d   1      -6.831  78.670 117.206  0.00  0.00    -0.368 OA
BRANCH   7   8
ATOM      8  C   LIG d   1      -6.577  79.664 118.229  0.00  0.00     0.119 C 
BRANCH   8   9
ATOM      9  C   LIG d   1      -7.900  80.411 118.486  0.00  0.00     0.028 C 
ATOM     10  C   LIG d   1      -7.908  81.819 117.868  0.00  0.00     0.006 C 
ENDBRANCH   8   9
BRANCH   8  11
ATOM     11  C   LIG d   1      -5.597  80.733 117.736  0.00  0.00     0.028 C 
ATOM     12  C   LIG d   1      -4.216  80.627 118.403  0.00  0.00     0.006 C 
ENDBRANCH   8  11
ENDBRANCH   7   8
ENDBRANCH   1   7
BRANCH   6  13
ATOM     13  N   LIG d   1      -7.042  76.280 119.030  0.00  0.00    -0.311 N 
ATOM     14  C   LIG d   1      -8.209  76.655 119.550  0.00  0.00     0.210 C 
ATOM     15  C   LIG d   1      -8.271  76.635 121.081  0.00  0.00     0.109 C 
ATOM     16  O   LIG d   1      -9.210  76.971 118.889  0.00  0.00    -0.276 OA
ATOM     17  H   LIG d   1      -6.295  76.009 119.639  0.00  0.00     0.149 HD
ENDBRANCH   6  13
BRANCH   5  18
ATOM     18  N   LIG d   1      -6.819  73.736 117.352  0.00  0.00     0.381 N 
ATOM     19  H   LIG d   1      -6.261  73.053 117.825  0.00  0.00    -0.090 HD
ATOM     20  H   LIG d   1      -7.088  73.361 116.460  0.00  0.00    -0.090 HD
ATOM     21  H   LIG d   1      -7.630  73.945 117.891  0.00  0.00    -0.090 HD
ENDBRANCH   5  18
BRANCH   3  22
ATOM     22  C   LIG d   1      -4.196  76.218 114.205  0.00  0.00     0.382 C 
ATOM     23  O   LIG d   1      -3.061  75.699 114.330  0.00  0.00    -0.241 OA
ATOM     24  O   LIG d   1      -4.513  76.747 113.123  0.00  0.00    -0.241 OA
ENDBRANCH   3  22
TORSDOF 7
ENDMDL
MODEL 7
REMARK VINA RESULT:      -4.8     13.120     15.318
REMARK  7 active torsions:
REMARK  status: ('A' for Active; 'I' for Inactive)
REMARK    1  A    between atoms: C_2  and  C_3 
REMARK    2  A    between atoms: C_3  and  O_6 
REMARK    3  A    between atoms: C_3  and  C_4 
REMARK    4  A    between atoms: C_7  and  O_6 
REMARK    5  A    between atoms: C_9  and  C_10 
REMARK    6  A    between atoms: N_15  and  C_14 
REMARK    7  A    between atoms: N_20  and  C_19 
REMARK       I    between atoms: C_22  and  N_20 
ROOT
ATOM      1  C   LIG d   1      -4.792  92.688 117.151  0.00  0.00     0.161 C 
ATOM      2  C   LIG d   1      -5.042  91.457 116.521  0.00  0.00     0.016 C 
ATOM      3  C   LIG d   1      -6.227  91.178 115.802  0.00  0.00     0.038 C 
ATOM      4  C   LIG d   1      -7.183  92.169 115.535  0.00  0.00     0.028 C 
ATOM      5  C   LIG d   1      -7.210  93.282 116.578  0.00  0.00    -0.047 C 
ATOM      6  C   LIG d   1      -5.774  93.818 116.777  0.00  0.00     0.091 C 
ENDROOT
BRANCH   1   7
ATOM      7  O   LIG d   1      -3.434  93.100 116.897  0.00  0.00    -0.368 OA
BRANCH   7   8
ATOM      8  C   LIG d   1      -2.512  92.977 118.008  0.00  0.00     0.119 C 
BRANCH   8   9
ATOM      9  C   LIG d   1      -1.925  94.376 118.278  0.00  0.00     0.028 C 
ATOM     10  C   LIG d   1      -0.537  94.312 118.939  0.00  0.00     0.006 C 
ENDBRANCH   8   9
BRANCH   8  11
ATOM     11  C   LIG d   1      -1.313  92.097 117.644  0.00  0.00     0.028 C 
ATOM     12  C   LIG d   1      -1.521  90.621 118.019  0.00  0.00     0.006 C 
ENDBRANCH   8  11
ENDBRANCH   7   8
ENDBRANCH   1   7
BRANCH   6  13
ATOM     13  N   LIG d   1      -5.697  94.851 117.843  0.00  0.00    -0.311 N 
ATOM     14  C   LIG d   1      -6.006  94.615 119.117  0.00  0.00     0.210 C 
ATOM     15  C   LIG d   1      -5.877  95.824 120.048  0.00  0.00     0.109 C 
ATOM     16  O   LIG d   1      -6.343  93.511 119.570  0.00  0.00    -0.276 OA
ATOM     17  H   LIG d   1      -5.402  95.768 117.568  0.00  0.00     0.149 HD
ENDBRANCH   6  13
BRANCH   5  18
ATOM     18  N   LIG d   1      -8.152  94.314 116.106  0.00  0.00     0.381 N 
ATOM     19  H   LIG d   1      -8.642  93.981 115.299  0.00  0.00    -0.090 HD
ATOM     20  H   LIG d   1      -7.632  95.132 115.843  0.00  0.00    -0.090 HD
ATOM     21  H   LIG d   1      -8.800  94.540 116.827  0.00  0.00    -0.090 HD
ENDBRANCH   5  18
BRANCH   3  22
ATOM     22  C   LIG d   1      -6.483  89.884 115.375  0.00  0.00     0.382 C 
ATOM     23  O   LIG d   1      -7.472  89.259 115.829  0.00  0.00    -0.241 OA
ATOM     24  O   LIG d   1      -5.713  89.318 114.576  0.00  0.00    -0.241 OA
ENDBRANCH   3  22
TORSDOF 7
ENDMDL
MODEL 8
REMARK VINA RESULT:      -4.8     19.583     22.060
REMARK  7 active torsions:
REMARK  status: ('A' for Active; 'I' for Inactive)
REMARK    1  A    between atoms: C_2  and  C_3 
REMARK    2  A    between atoms: C_3  and  O_6 
REMARK    3  A    between atoms: C_3  and  C_4 
REMARK    4  A    between atoms: C_7  and  O_6 
REMARK    5  A    between atoms: C_9  and  C_10 
REMARK    6  A    between atoms: N_15  and  C_14 
REMARK    7  A    between atoms: N_20  and  C_19 
REMARK       I    between atoms: C_22  and  N_20 
ROOT
ATOM      1  C   LIG d   1       1.575  58.229 119.167  0.00  0.00     0.161 C 
ATOM      2  C   LIG d   1       2.312  59.419 119.052  0.00  0.00     0.016 C 
ATOM      3  C   LIG d   1       3.577  59.494 118.425  0.00  0.00     0.038 C 
ATOM      4  C   LIG d   1       4.127  58.405 117.733  0.00  0.00     0.028 C 
ATOM      5  C   LIG d   1       3.653  57.053 118.255  0.00  0.00    -0.047 C 
ATOM      6  C   LIG d   1       2.108  57.054 118.320  0.00  0.00     0.091 C 
ENDROOT
BRANCH   1   7
ATOM      7  O   LIG d   1       0.190  58.480 118.859  0.00  0.00    -0.368 OA
BRANCH   7   8
ATOM      8  C   LIG d   1      -0.072  59.566 117.936  0.00  0.00     0.119 C 
BRANCH   8   9
ATOM      9  C   LIG d   1      -1.231  60.398 118.517  0.00  0.00     0.028 C 
ATOM     10  C   LIG d   1      -1.274  60.351 120.054  0.00  0.00     0.006 C 
ENDBRANCH   8   9
BRANCH   8  11
ATOM     11  C   LIG d   1      -0.583  59.043 116.590  0.00  0.00     0.028 C 
ATOM     12  C   LIG d   1      -2.107  59.167 116.443  0.00  0.00     0.006 C 
ENDBRANCH   8  11
ENDBRANCH   7   8
ENDBRANCH   1   7
BRANCH   6  13
ATOM     13  N   LIG d   1       1.565  55.798 118.900  0.00  0.00    -0.311 N 
ATOM     14  C   LIG d   1       1.252  54.729 118.171  0.00  0.00     0.210 C 
ATOM     15  C   LIG d   1       0.688  53.547 118.965  0.00  0.00     0.109 C 
ATOM     16  O   LIG d   1       1.418  54.635 116.945  0.00  0.00    -0.276 OA
ATOM     17  H   LIG d   1       1.427  55.776 119.892  0.00  0.00     0.149 HD
ENDBRANCH   6  13
BRANCH   5  18
ATOM     18  N   LIG d   1       4.193  56.014 117.358  0.00  0.00     0.381 N 
ATOM     19  H   LIG d   1       4.992  55.585 117.781  0.00  0.00    -0.090 HD
ATOM     20  H   LIG d   1       4.485  56.446 116.499  0.00  0.00    -0.090 HD
ATOM     21  H   LIG d   1       3.496  55.327 117.174  0.00  0.00    -0.090 HD
ENDBRANCH   5  18
BRANCH   3  22
ATOM     22  C   LIG d   1       4.324  60.658 118.522  0.00  0.00     0.382 C 
ATOM     23  O   LIG d   1       4.683  61.261 117.481  0.00  0.00    -0.241 OA
ATOM     24  O   LIG d   1       4.681  61.089 119.634  0.00  0.00    -0.241 OA
ENDBRANCH   3  22
TORSDOF 7
ENDMDL
MODEL 9
REMARK VINA RESULT:      -4.7     13.494     15.556
REMARK  7 active torsions:
REMARK  status: ('A' for Active; 'I' for Inactive)
REMARK    1  A    between atoms: C_2  and  C_3 
REMARK    2  A    between atoms: C_3  and  O_6 
REMARK    3  A    between atoms: C_3  and  C_4 
REMARK    4  A    between atoms: C_7  and  O_6 
REMARK    5  A    between atoms: C_9  and  C_10 
REMARK    6  A    between atoms: N_15  and  C_14 
REMARK    7  A    between atoms: N_20  and  C_19 
REMARK       I    between atoms: C_22  and  N_20 
ROOT
ATOM      1  C   LIG d   1      -4.341  93.176 117.334  0.00  0.00     0.161 C 
ATOM      2  C   LIG d   1      -4.224  94.387 118.037  0.00  0.00     0.016 C 
ATOM      3  C   LIG d   1      -5.259  95.348 118.109  0.00  0.00     0.038 C 
ATOM      4  C   LIG d   1      -6.543  95.095 117.605  0.00  0.00     0.028 C 
ATOM      5  C   LIG d   1      -6.555  94.099 116.450  0.00  0.00    -0.047 C 
ATOM      6  C   LIG d   1      -5.773  92.833 116.871  0.00  0.00     0.091 C 
ENDROOT
BRANCH   1   7
ATOM      7  O   LIG d   1      -3.798  92.099 118.122  0.00  0.00    -0.368 OA
BRANCH   7   8
ATOM      8  C   LIG d   1      -2.374  91.865 117.986  0.00  0.00     0.119 C 
BRANCH   8   9
ATOM      9  C   LIG d   1      -2.193  90.510 117.275  0.00  0.00     0.028 C 
ATOM     10  C   LIG d   1      -3.150  89.433 117.814  0.00  0.00     0.006 C 
ENDBRANCH   8   9
BRANCH   8  11
ATOM     11  C   LIG d   1      -1.704  91.699 119.353  0.00  0.00     0.028 C 
ATOM     12  C   LIG d   1      -2.635  92.062 120.521  0.00  0.00     0.006 C 
ENDBRANCH   8  11
ENDBRANCH   7   8
ENDBRANCH   1   7
BRANCH   6  13
ATOM     13  N   LIG d   1      -5.664  91.842 115.769  0.00  0.00    -0.311 N 
ATOM     14  C   LIG d   1      -6.106  90.589 115.864  0.00  0.00     0.210 C 
ATOM     15  C   LIG d   1      -5.877  89.726 114.619  0.00  0.00     0.109 C 
ATOM     16  O   LIG d   1      -6.695  90.120 116.849  0.00  0.00    -0.276 OA
ATOM     17  H   LIG d   1      -5.227  92.148 114.922  0.00  0.00     0.149 HD
ENDBRANCH   6  13
BRANCH   5  18
ATOM     18  N   LIG d   1      -7.964  93.822 116.115  0.00  0.00     0.381 N 
ATOM     19  H   LIG d   1      -8.564  94.251 116.791  0.00  0.00    -0.090 HD
ATOM     20  H   LIG d   1      -8.116  92.830 116.142  0.00  0.00    -0.090 HD
ATOM     21  H   LIG d   1      -8.173  94.173 115.206  0.00  0.00    -0.090 HD
ENDBRANCH   5  18
BRANCH   3  22
ATOM     22  C   LIG d   1      -5.000  96.596 118.656  0.00  0.00     0.382 C 
ATOM     23  O   LIG d   1      -5.887  97.186 119.319  0.00  0.00    -0.241 OA
ATOM     24  O   LIG d   1      -3.907  97.158 118.458  0.00  0.00    -0.241 OA
ENDBRANCH   3  22
TORSDOF 7
ENDMDL
