MODEL 1
REMARK VINA RESULT:      -6.1      0.000      0.000
REMARK  7 active torsions:
REMARK  status: ('A' for Active; 'I' for Inactive)
REMARK    1  A    between atoms: C_2  and  C_3 
REMARK    2  A    between atoms: C_3  and  O_6 
REMARK    3  A    between atoms: C_3  and  C_4 
REMARK    4  A    between atoms: C_7  and  O_6 
REMARK    5  A    between atoms: C_9  and  C_10 
REMARK    6  A    between atoms: N_15  and  C_14 
REMARK    7  A    between atoms: N_20  and  C_19 
REMARK       I    between atoms: C_22  and  N_20 
ROOT
ATOM      1  C   LIG d   1      -7.995  76.198 117.391  0.00  0.00     0.161 C 
ATOM      2  C   LIG d   1      -8.988  76.878 118.115  0.00  0.00     0.016 C 
ATOM      3  C   LIG d   1      -8.909  78.251 118.445  0.00  0.00     0.038 C 
ATOM      4  C   LIG d   1      -7.894  79.077 117.939  0.00  0.00     0.028 C 
ATOM      5  C   LIG d   1      -6.603  78.328 117.624  0.00  0.00    -0.047 C 
ATOM      6  C   LIG d   1      -6.935  77.108 116.736  0.00  0.00     0.091 C 
ENDROOT
BRANCH   1   7
ATOM      7  O   LIG d   1      -8.607  75.349 116.401  0.00  0.00    -0.368 OA
BRANCH   7   8
ATOM      8  C   LIG d   1      -8.758  73.954 116.762  0.00  0.00     0.119 C 
BRANCH   8   9
ATOM      9  C   LIG d   1      -7.810  73.137 115.863  0.00  0.00     0.028 C 
ATOM     10  C   LIG d   1      -8.081  71.626 115.944  0.00  0.00     0.006 C 
ENDBRANCH   8   9
BRANCH   8  11
ATOM     11  C   LIG d   1     -10.165  73.442 116.438  0.00  0.00     0.028 C 
ATOM     12  C   LIG d   1     -11.268  74.242 117.149  0.00  0.00     0.006 C 
ENDBRANCH   8  11
ENDBRANCH   7   8
ENDBRANCH   1   7
BRANCH   6  13
ATOM     13  N   LIG d   1      -5.739  76.273 116.450  0.00  0.00    -0.311 N 
ATOM     14  C   LIG d   1      -5.421  75.840 115.232  0.00  0.00     0.210 C 
ATOM     15  C   LIG d   1      -4.158  74.976 115.162  0.00  0.00     0.109 C 
ATOM     16  O   LIG d   1      -6.046  76.117 114.197  0.00  0.00    -0.276 OA
ATOM     17  H   LIG d   1      -5.159  76.027 117.228  0.00  0.00     0.149 HD
ENDBRANCH   6  13
BRANCH   5  18
ATOM     18  N   LIG d   1      -5.682  79.281 116.978  0.00  0.00     0.381 N 
ATOM     19  H   LIG d   1      -6.152  80.149 116.815  0.00  0.00    -0.090 HD
ATOM     20  H   LIG d   1      -5.396  78.906 116.090  0.00  0.00    -0.090 HD
ATOM     21  H   LIG d   1      -4.884  79.430 117.556  0.00  0.00    -0.090 HD
ENDBRANCH   5  18
BRANCH   3  22
ATOM     22  C   LIG d   1      -9.830  78.801 119.323  0.00  0.00     0.382 C 
ATOM     23  O   LIG d   1     -10.423  78.067 120.150  0.00  0.00    -0.241 OA
ATOM     24  O   LIG d   1     -10.108  80.014 119.269  0.00  0.00    -0.241 OA
ENDBRANCH   3  22
TORSDOF 7
ENDMDL
MODEL 2
REMARK VINA RESULT:      -5.9     14.285     15.970
REMARK  7 active torsions:
REMARK  status: ('A' for Active; 'I' for Inactive)
REMARK    1  A    between atoms: C_2  and  C_3 
REMARK    2  A    between atoms: C_3  and  O_6 
REMARK    3  A    between atoms: C_3  and  C_4 
REMARK    4  A    between atoms: C_7  and  O_6 
REMARK    5  A    between atoms: C_9  and  C_10 
REMARK    6  A    between atoms: N_15  and  C_14 
REMARK    7  A    between atoms: N_20  and  C_19 
REMARK       I    between atoms: C_22  and  N_20 
ROOT
ATOM      1  C   LIG d   1      -4.546  90.644 117.511  0.00  0.00     0.161 C 
ATOM      2  C   LIG d   1      -5.200  90.140 116.374  0.00  0.00     0.016 C 
ATOM      3  C   LIG d   1      -6.296  90.786 115.756  0.00  0.00     0.038 C 
ATOM      4  C   LIG d   1      -6.718  92.066 116.147  0.00  0.00     0.028 C 
ATOM      5  C   LIG d   1      -6.414  92.385 117.606  0.00  0.00    -0.047 C 
ATOM      6  C   LIG d   1      -4.922  92.094 117.883  0.00  0.00     0.091 C 
ENDROOT
BRANCH   1   7
ATOM      7  O   LIG d   1      -3.119  90.522 117.347  0.00  0.00    -0.368 OA
BRANCH   7   8
ATOM      8  C   LIG d   1      -2.528  89.283 117.810  0.00  0.00     0.119 C 
BRANCH   8   9
ATOM      9  C   LIG d   1      -2.919  89.109 119.291  0.00  0.00     0.028 C 
ATOM     10  C   LIG d   1      -1.915  89.778 120.245  0.00  0.00     0.006 C 
ENDBRANCH   8   9
BRANCH   8  11
ATOM     11  C   LIG d   1      -0.999  89.358 117.800  0.00  0.00     0.028 C 
ATOM     12  C   LIG d   1      -0.465  90.549 116.989  0.00  0.00     0.006 C 
ENDBRANCH   8  11
ENDBRANCH   7   8
ENDBRANCH   1   7
BRANCH   6  13
ATOM     13  N   LIG d   1      -4.559  92.299 119.310  0.00  0.00    -0.311 N 
ATOM     14  C   LIG d   1      -3.566  93.093 119.707  0.00  0.00     0.210 C 
ATOM     15  C   LIG d   1      -3.347  93.147 121.222  0.00  0.00     0.109 C 
ATOM     16  O   LIG d   1      -2.865  93.782 118.950  0.00  0.00    -0.276 OA
ATOM     17  H   LIG d   1      -5.096  91.803 119.993  0.00  0.00     0.149 HD
ENDBRANCH   6  13
BRANCH   5  18
ATOM     18  N   LIG d   1      -6.781  93.795 117.840  0.00  0.00     0.381 N 
ATOM     19  H   LIG d   1      -6.717  94.004 118.817  0.00  0.00    -0.090 HD
ATOM     20  H   LIG d   1      -7.732  93.935 117.549  0.00  0.00    -0.090 HD
ATOM     21  H   LIG d   1      -6.176  94.395 117.325  0.00  0.00    -0.090 HD
ENDBRANCH   5  18
BRANCH   3  22
ATOM     22  C   LIG d   1      -7.007  90.133 114.761  0.00  0.00     0.382 C 
ATOM     23  O   LIG d   1      -6.694  88.964 114.432  0.00  0.00    -0.241 OA
ATOM     24  O   LIG d   1      -7.930  90.714 114.159  0.00  0.00    -0.241 OA
ENDBRANCH   3  22
TORSDOF 7
ENDMDL
MODEL 3
REMARK VINA RESULT:      -5.8      2.378      4.826
REMARK  7 active torsions:
REMARK  status: ('A' for Active; 'I' for Inactive)
REMARK    1  A    between atoms: C_2  and  C_3 
REMARK    2  A    between atoms: C_3  and  O_6 
REMARK    3  A    between atoms: C_3  and  C_4 
REMARK    4  A    between atoms: C_7  and  O_6 
REMARK    5  A    between atoms: C_9  and  C_10 
REMARK    6  A    between atoms: N_15  and  C_14 
REMARK    7  A    between atoms: N_20  and  C_19 
REMARK       I    between atoms: C_22  and  N_20 
ROOT
ATOM      1  C   LIG d   1      -7.063  75.622 115.789  0.00  0.00     0.161 C 
ATOM      2  C   LIG d   1      -8.399  75.444 116.186  0.00  0.00     0.016 C 
ATOM      3  C   LIG d   1      -8.934  74.196 116.580  0.00  0.00     0.038 C 
ATOM      4  C   LIG d   1      -8.125  73.063 116.750  0.00  0.00     0.028 C 
ATOM      5  C   LIG d   1      -6.874  73.075 115.878  0.00  0.00    -0.047 C 
ATOM      6  C   LIG d   1      -6.138  74.420 116.075  0.00  0.00     0.091 C 
ENDROOT
BRANCH   1   7
ATOM      7  O   LIG d   1      -6.530  76.819 116.391  0.00  0.00    -0.368 OA
BRANCH   7   8
ATOM      8  C   LIG d   1      -7.169  77.254 117.616  0.00  0.00     0.119 C 
BRANCH   8   9
ATOM      9  C   LIG d   1      -7.135  78.795 117.633  0.00  0.00     0.028 C 
ATOM     10  C   LIG d   1      -8.490  79.407 118.027  0.00  0.00     0.006 C 
ENDBRANCH   8   9
BRANCH   8  11
ATOM     11  C   LIG d   1      -6.368  76.818 118.847  0.00  0.00     0.028 C 
ATOM     12  C   LIG d   1      -7.133  75.821 119.732  0.00  0.00     0.006 C 
ENDBRANCH   8  11
ENDBRANCH   7   8
ENDBRANCH   1   7
BRANCH   6  13
ATOM     13  N   LIG d   1      -4.948  74.550 115.194  0.00  0.00    -0.311 N 
ATOM     14  C   LIG d   1      -3.739  74.885 115.641  0.00  0.00     0.210 C 
ATOM     15  C   LIG d   1      -2.655  74.982 114.562  0.00  0.00     0.109 C 
ATOM     16  O   LIG d   1      -3.454  75.081 116.832  0.00  0.00    -0.276 OA
ATOM     17  H   LIG d   1      -5.083  74.378 114.217  0.00  0.00     0.149 HD
ENDBRANCH   6  13
BRANCH   5  18
ATOM     18  N   LIG d   1      -6.055  71.908 116.256  0.00  0.00     0.381 N 
ATOM     19  H   LIG d   1      -6.226  71.670 117.213  0.00  0.00    -0.090 HD
ATOM     20  H   LIG d   1      -5.084  72.146 116.159  0.00  0.00    -0.090 HD
ATOM     21  H   LIG d   1      -6.275  71.133 115.669  0.00  0.00    -0.090 HD
ENDBRANCH   5  18
BRANCH   3  22
ATOM     22  C   LIG d   1     -10.301  74.063 116.770  0.00  0.00     0.382 C 
ATOM     23  O   LIG d   1     -10.879  72.997 116.447  0.00  0.00    -0.241 OA
ATOM     24  O   LIG d   1     -10.971  75.012 117.219  0.00  0.00    -0.241 OA
ENDBRANCH   3  22
TORSDOF 7
ENDMDL
MODEL 4
REMARK VINA RESULT:      -5.8      1.890      5.079
REMARK  7 active torsions:
REMARK  status: ('A' for Active; 'I' for Inactive)
REMARK    1  A    between atoms: C_2  and  C_3 
REMARK    2  A    between atoms: C_3  and  O_6 
REMARK    3  A    between atoms: C_3  and  C_4 
REMARK    4  A    between atoms: C_7  and  O_6 
REMARK    5  A    between atoms: C_9  and  C_10 
REMARK    6  A    between atoms: N_15  and  C_14 
REMARK    7  A    between atoms: N_20  and  C_19 
REMARK       I    between atoms: C_22  and  N_20 
ROOT
ATOM      1  C   LIG d   1      -6.647  75.902 115.565  0.00  0.00     0.161 C 
ATOM      2  C   LIG d   1      -5.482  75.291 115.070  0.00  0.00     0.016 C 
ATOM      3  C   LIG d   1      -4.264  75.243 115.787  0.00  0.00     0.038 C 
ATOM      4  C   LIG d   1      -4.170  75.673 117.119  0.00  0.00     0.028 C 
ATOM      5  C   LIG d   1      -5.184  76.753 117.480  0.00  0.00    -0.047 C 
ATOM      6  C   LIG d   1      -6.594  76.277 117.061  0.00  0.00     0.091 C 
ENDROOT
BRANCH   1   7
ATOM      7  O   LIG d   1      -7.789  75.064 115.299  0.00  0.00    -0.368 OA
BRANCH   7   8
ATOM      8  C   LIG d   1      -8.213  74.202 116.383  0.00  0.00     0.119 C 
BRANCH   8   9
ATOM      9  C   LIG d   1      -8.055  72.745 115.906  0.00  0.00     0.028 C 
ATOM     10  C   LIG d   1      -6.800  72.071 116.485  0.00  0.00     0.006 C 
ENDBRANCH   8   9
BRANCH   8  11
ATOM     11  C   LIG d   1      -9.706  74.372 116.678  0.00  0.00     0.028 C 
ATOM     12  C   LIG d   1     -10.501  73.069 116.499  0.00  0.00     0.006 C 
ENDBRANCH   8  11
ENDBRANCH   7   8
ENDBRANCH   1   7
BRANCH   6  13
ATOM     13  N   LIG d   1      -7.635  77.310 117.302  0.00  0.00    -0.311 N 
ATOM     14  C   LIG d   1      -8.354  77.379 118.421  0.00  0.00     0.210 C 
ATOM     15  C   LIG d   1      -9.389  78.508 118.457  0.00  0.00     0.109 C 
ATOM     16  O   LIG d   1      -8.212  76.631 119.401  0.00  0.00    -0.276 OA
ATOM     17  H   LIG d   1      -7.795  77.976 116.572  0.00  0.00     0.149 HD
ENDBRANCH   6  13
BRANCH   5  18
ATOM     18  N   LIG d   1      -5.067  77.008 118.928  0.00  0.00     0.381 N 
ATOM     19  H   LIG d   1      -5.161  76.149 119.432  0.00  0.00    -0.090 HD
ATOM     20  H   LIG d   1      -5.810  77.622 119.212  0.00  0.00    -0.090 HD
ATOM     21  H   LIG d   1      -4.185  77.425 119.131  0.00  0.00    -0.090 HD
ENDBRANCH   5  18
BRANCH   3  22
ATOM     22  C   LIG d   1      -3.113  74.797 115.156  0.00  0.00     0.382 C 
ATOM     23  O   LIG d   1      -2.967  74.971 113.922  0.00  0.00    -0.241 OA
ATOM     24  O   LIG d   1      -2.239  74.184 115.797  0.00  0.00    -0.241 OA
ENDBRANCH   3  22
TORSDOF 7
ENDMDL
MODEL 5
REMARK VINA RESULT:      -5.7      2.469      6.076
REMARK  7 active torsions:
REMARK  status: ('A' for Active; 'I' for Inactive)
REMARK    1  A    between atoms: C_2  and  C_3 
REMARK    2  A    between atoms: C_3  and  O_6 
REMARK    3  A    between atoms: C_3  and  C_4 
REMARK    4  A    between atoms: C_7  and  O_6 
REMARK    5  A    between atoms: C_9  and  C_10 
REMARK    6  A    between atoms: N_15  and  C_14 
REMARK    7  A    between atoms: N_20  and  C_19 
REMARK       I    between atoms: C_22  and  N_20 
ROOT
ATOM      1  C   LIG d   1      -7.336  75.025 116.673  0.00  0.00     0.161 C 
ATOM      2  C   LIG d   1      -7.184  73.680 116.298  0.00  0.00     0.016 C 
ATOM      3  C   LIG d   1      -8.262  72.770 116.211  0.00  0.00     0.038 C 
ATOM      4  C   LIG d   1      -9.595  73.185 116.348  0.00  0.00     0.028 C 
ATOM      5  C   LIG d   1      -9.758  74.423 117.222  0.00  0.00    -0.047 C 
ATOM      6  C   LIG d   1      -8.796  75.523 116.718  0.00  0.00     0.091 C 
ENDROOT
BRANCH   1   7
ATOM      7  O   LIG d   1      -6.546  75.866 115.808  0.00  0.00    -0.368 OA
BRANCH   7   8
ATOM      8  C   LIG d   1      -5.116  75.852 116.038  0.00  0.00     0.119 C 
BRANCH   8   9
ATOM      9  C   LIG d   1      -4.799  76.966 117.054  0.00  0.00     0.028 C 
ATOM     10  C   LIG d   1      -5.576  78.261 116.766  0.00  0.00     0.006 C 
ENDBRANCH   8   9
BRANCH   8  11
ATOM     11  C   LIG d   1      -4.344  76.228 114.770  0.00  0.00     0.028 C 
ATOM     12  C   LIG d   1      -4.675  75.315 113.578  0.00  0.00     0.006 C 
ENDBRANCH   8  11
ENDBRANCH   7   8
ENDBRANCH   1   7
BRANCH   6  13
ATOM     13  N   LIG d   1      -8.830  76.740 117.570  0.00  0.00    -0.311 N 
ATOM     14  C   LIG d   1      -8.341  76.782 118.809  0.00  0.00     0.210 C 
ATOM     15  C   LIG d   1      -8.496  78.130 119.520  0.00  0.00     0.109 C 
ATOM     16  O   LIG d   1      -7.764  75.840 119.374  0.00  0.00    -0.276 OA
ATOM     17  H   LIG d   1      -9.252  77.560 117.179  0.00  0.00     0.149 HD
ENDBRANCH   6  13
BRANCH   5  18
ATOM     18  N   LIG d   1     -11.176  74.825 117.167  0.00  0.00     0.381 N 
ATOM     19  H   LIG d   1     -11.443  74.993 116.218  0.00  0.00    -0.090 HD
ATOM     20  H   LIG d   1     -11.292  75.680 117.683  0.00  0.00    -0.090 HD
ATOM     21  H   LIG d   1     -11.748  74.111 117.560  0.00  0.00    -0.090 HD
ENDBRANCH   5  18
BRANCH   3  22
ATOM     22  C   LIG d   1      -8.008  71.420 116.023  0.00  0.00     0.382 C 
ATOM     23  O   LIG d   1      -6.990  71.056 115.388  0.00  0.00    -0.241 OA
ATOM     24  O   LIG d   1      -8.809  70.562 116.443  0.00  0.00    -0.241 OA
ENDBRANCH   3  22
TORSDOF 7
ENDMDL
MODEL 6
REMARK VINA RESULT:      -5.6     13.597     16.884
REMARK  7 active torsions:
REMARK  status: ('A' for Active; 'I' for Inactive)
REMARK    1  A    between atoms: C_2  and  C_3 
REMARK    2  A    between atoms: C_3  and  O_6 
REMARK    3  A    between atoms: C_3  and  C_4 
REMARK    4  A    between atoms: C_7  and  O_6 
REMARK    5  A    between atoms: C_9  and  C_10 
REMARK    6  A    between atoms: N_15  and  C_14 
REMARK    7  A    between atoms: N_20  and  C_19 
REMARK       I    between atoms: C_22  and  N_20 
ROOT
ATOM      1  C   LIG d   1      -6.097  92.411 117.460  0.00  0.00     0.161 C 
ATOM      2  C   LIG d   1      -7.098  91.568 116.950  0.00  0.00     0.016 C 
ATOM      3  C   LIG d   1      -6.843  90.266 116.460  0.00  0.00     0.038 C 
ATOM      4  C   LIG d   1      -5.585  89.659 116.588  0.00  0.00     0.028 C 
ATOM      5  C   LIG d   1      -4.433  90.656 116.636  0.00  0.00    -0.047 C 
ATOM      6  C   LIG d   1      -4.738  91.725 117.711  0.00  0.00     0.091 C 
ENDROOT
BRANCH   1   7
ATOM      7  O   LIG d   1      -6.565  93.051 118.664  0.00  0.00    -0.368 OA
BRANCH   7   8
ATOM      8  C   LIG d   1      -6.777  94.482 118.585  0.00  0.00     0.119 C 
BRANCH   8   9
ATOM      9  C   LIG d   1      -6.150  95.113 119.843  0.00  0.00     0.028 C 
ATOM     10  C   LIG d   1      -5.166  96.245 119.503  0.00  0.00     0.006 C 
ENDBRANCH   8   9
BRANCH   8  11
ATOM     11  C   LIG d   1      -8.267  94.829 118.657  0.00  0.00     0.028 C 
ATOM     12  C   LIG d   1      -8.990  94.117 119.811  0.00  0.00     0.006 C 
ENDBRANCH   8  11
ENDBRANCH   7   8
ENDBRANCH   1   7
BRANCH   6  13
ATOM     13  N   LIG d   1      -3.701  92.787 117.765  0.00  0.00    -0.311 N 
ATOM     14  C   LIG d   1      -3.073  93.142 118.884  0.00  0.00     0.210 C 
ATOM     15  C   LIG d   1      -2.053  94.274 118.723  0.00  0.00     0.109 C 
ATOM     16  O   LIG d   1      -3.240  92.606 119.990  0.00  0.00    -0.276 OA
ATOM     17  H   LIG d   1      -3.480  93.254 116.907  0.00  0.00     0.149 HD
ENDBRANCH   6  13
BRANCH   5  18
ATOM     18  N   LIG d   1      -3.198  89.898 116.910  0.00  0.00     0.381 N 
ATOM     19  H   LIG d   1      -2.399  90.466 116.708  0.00  0.00    -0.090 HD
ATOM     20  H   LIG d   1      -3.171  89.093 116.309  0.00  0.00    -0.090 HD
ATOM     21  H   LIG d   1      -3.178  89.611 117.863  0.00  0.00    -0.090 HD
ENDBRANCH   5  18
BRANCH   3  22
ATOM     22  C   LIG d   1      -7.845  89.573 115.797  0.00  0.00     0.382 C 
ATOM     23  O   LIG d   1      -8.249  89.972 114.679  0.00  0.00    -0.241 OA
ATOM     24  O   LIG d   1      -8.380  88.579 116.324  0.00  0.00    -0.241 OA
ENDBRANCH   3  22
TORSDOF 7
ENDMDL
MODEL 7
REMARK VINA RESULT:      -5.6      2.689      5.829
REMARK  7 active torsions:
REMARK  status: ('A' for Active; 'I' for Inactive)
REMARK    1  A    between atoms: C_2  and  C_3 
REMARK    2  A    between atoms: C_3  and  O_6 
REMARK    3  A    between atoms: C_3  and  C_4 
REMARK    4  A    between atoms: C_7  and  O_6 
REMARK    5  A    between atoms: C_9  and  C_10 
REMARK    6  A    between atoms: N_15  and  C_14 
REMARK    7  A    between atoms: N_20  and  C_19 
REMARK       I    between atoms: C_22  and  N_20 
ROOT
ATOM      1  C   LIG d   1      -5.826  74.812 116.441  0.00  0.00     0.161 C 
ATOM      2  C   LIG d   1      -6.427  73.628 115.981  0.00  0.00     0.016 C 
ATOM      3  C   LIG d   1      -7.790  73.315 116.190  0.00  0.00     0.038 C 
ATOM      4  C   LIG d   1      -8.686  74.241 116.744  0.00  0.00     0.028 C 
ATOM      5  C   LIG d   1      -8.020  75.246 117.677  0.00  0.00    -0.047 C 
ATOM      6  C   LIG d   1      -6.814  75.883 116.950  0.00  0.00     0.091 C 
ENDROOT
BRANCH   1   7
ATOM      7  O   LIG d   1      -4.978  75.361 115.413  0.00  0.00    -0.368 OA
BRANCH   7   8
ATOM      8  C   LIG d   1      -3.578  74.993 115.477  0.00  0.00     0.119 C 
BRANCH   8   9
ATOM      9  C   LIG d   1      -2.857  76.063 116.320  0.00  0.00     0.028 C 
ATOM     10  C   LIG d   1      -2.500  75.558 117.728  0.00  0.00     0.006 C 
ENDBRANCH   8   9
BRANCH   8  11
ATOM     11  C   LIG d   1      -2.922  75.055 114.095  0.00  0.00     0.028 C 
ATOM     12  C   LIG d   1      -1.438  74.655 114.121  0.00  0.00     0.006 C 
ENDBRANCH   8  11
ENDBRANCH   7   8
ENDBRANCH   1   7
BRANCH   6  13
ATOM     13  N   LIG d   1      -6.054  76.816 117.822  0.00  0.00    -0.311 N 
ATOM     14  C   LIG d   1      -5.678  78.035 117.439  0.00  0.00     0.210 C 
ATOM     15  C   LIG d   1      -4.887  78.826 118.485  0.00  0.00     0.109 C 
ATOM     16  O   LIG d   1      -5.952  78.548 116.343  0.00  0.00    -0.276 OA
ATOM     17  H   LIG d   1      -5.817  76.493 118.739  0.00  0.00     0.149 HD
ENDBRANCH   6  13
BRANCH   5  18
ATOM     18  N   LIG d   1      -9.042  76.232 118.074  0.00  0.00     0.381 N 
ATOM     19  H   LIG d   1      -9.139  76.237 119.070  0.00  0.00    -0.090 HD
ATOM     20  H   LIG d   1      -9.924  75.965 117.673  0.00  0.00    -0.090 HD
ATOM     21  H   LIG d   1      -8.784  77.139 117.753  0.00  0.00    -0.090 HD
ENDBRANCH   5  18
BRANCH   3  22
ATOM     22  C   LIG d   1      -8.259  72.049 115.878  0.00  0.00     0.382 C 
ATOM     23  O   LIG d   1      -9.484  71.794 115.970  0.00  0.00    -0.241 OA
ATOM     24  O   LIG d   1      -7.468  71.145 115.547  0.00  0.00    -0.241 OA
ENDBRANCH   3  22
TORSDOF 7
ENDMDL
MODEL 8
REMARK VINA RESULT:      -5.5     14.120     16.423
REMARK  7 active torsions:
REMARK  status: ('A' for Active; 'I' for Inactive)
REMARK    1  A    between atoms: C_2  and  C_3 
REMARK    2  A    between atoms: C_3  and  O_6 
REMARK    3  A    between atoms: C_3  and  C_4 
REMARK    4  A    between atoms: C_7  and  O_6 
REMARK    5  A    between atoms: C_9  and  C_10 
REMARK    6  A    between atoms: N_15  and  C_14 
REMARK    7  A    between atoms: N_20  and  C_19 
REMARK       I    between atoms: C_22  and  N_20 
ROOT
ATOM      1  C   LIG d   1      -4.968  90.972 117.875  0.00  0.00     0.161 C 
ATOM      2  C   LIG d   1      -5.052  90.218 116.693  0.00  0.00     0.016 C 
ATOM      3  C   LIG d   1      -6.026  90.444 115.693  0.00  0.00     0.038 C 
ATOM      4  C   LIG d   1      -6.894  91.545 115.739  0.00  0.00     0.028 C 
ATOM      5  C   LIG d   1      -7.178  92.034 117.155  0.00  0.00    -0.047 C 
ATOM      6  C   LIG d   1      -5.836  92.248 117.891  0.00  0.00     0.091 C 
ENDROOT
BRANCH   1   7
ATOM      7  O   LIG d   1      -3.592  91.298 118.150  0.00  0.00    -0.368 OA
BRANCH   7   8
ATOM      8  C   LIG d   1      -3.034  90.739 119.365  0.00  0.00     0.119 C 
BRANCH   8   9
ATOM      9  C   LIG d   1      -1.980  91.733 119.890  0.00  0.00     0.028 C 
ATOM     10  C   LIG d   1      -2.394  93.198 119.671  0.00  0.00     0.006 C 
ENDBRANCH   8   9
BRANCH   8  11
ATOM     11  C   LIG d   1      -2.265  89.445 119.081  0.00  0.00     0.028 C 
ATOM     12  C   LIG d   1      -1.508  89.483 117.744  0.00  0.00     0.006 C 
ENDBRANCH   8  11
ENDBRANCH   7   8
ENDBRANCH   1   7
BRANCH   6  13
ATOM     13  N   LIG d   1      -6.024  92.645 119.311  0.00  0.00    -0.311 N 
ATOM     14  C   LIG d   1      -6.097  93.913 119.714  0.00  0.00     0.210 C 
ATOM     15  C   LIG d   1      -6.274  94.102 121.224  0.00  0.00     0.109 C 
ATOM     16  O   LIG d   1      -6.065  94.897 118.961  0.00  0.00    -0.276 OA
ATOM     17  H   LIG d   1      -6.092  91.909 119.986  0.00  0.00     0.149 HD
ENDBRANCH   6  13
BRANCH   5  18
ATOM     18  N   LIG d   1      -7.982  93.266 117.049  0.00  0.00     0.381 N 
ATOM     19  H   LIG d   1      -7.507  94.021 117.503  0.00  0.00    -0.090 HD
ATOM     20  H   LIG d   1      -8.861  93.122 117.513  0.00  0.00    -0.090 HD
ATOM     21  H   LIG d   1      -8.136  93.491 116.091  0.00  0.00    -0.090 HD
ENDBRANCH   5  18
BRANCH   3  22
ATOM     22  C   LIG d   1      -6.165  89.539 114.652  0.00  0.00     0.382 C 
ATOM     23  O   LIG d   1      -7.164  89.603 113.895  0.00  0.00    -0.241 OA
ATOM     24  O   LIG d   1      -5.327  88.633 114.487  0.00  0.00    -0.241 OA
ENDBRANCH   3  22
TORSDOF 7
ENDMDL
MODEL 9
REMARK VINA RESULT:      -5.3      2.302      5.346
REMARK  7 active torsions:
REMARK  status: ('A' for Active; 'I' for Inactive)
REMARK    1  A    between atoms: C_2  and  C_3 
REMARK    2  A    between atoms: C_3  and  O_6 
REMARK    3  A    between atoms: C_3  and  C_4 
REMARK    4  A    between atoms: C_7  and  O_6 
REMARK    5  A    between atoms: C_9  and  C_10 
REMARK    6  A    between atoms: N_15  and  C_14 
REMARK    7  A    between atoms: N_20  and  C_19 
REMARK       I    between atoms: C_22  and  N_20 
ROOT
ATOM      1  C   LIG d   1      -7.592  75.431 117.335  0.00  0.00     0.161 C 
ATOM      2  C   LIG d   1      -8.212  74.177 117.208  0.00  0.00     0.016 C 
ATOM      3  C   LIG d   1      -7.837  73.217 116.240  0.00  0.00     0.038 C 
ATOM      4  C   LIG d   1      -6.707  73.388 115.426  0.00  0.00     0.028 C 
ATOM      5  C   LIG d   1      -6.358  74.851 115.174  0.00  0.00    -0.047 C 
ATOM      6  C   LIG d   1      -6.285  75.591 116.529  0.00  0.00     0.091 C 
ENDROOT
BRANCH   1   7
ATOM      7  O   LIG d   1      -7.360  75.723 118.727  0.00  0.00    -0.368 OA
BRANCH   7   8
ATOM      8  C   LIG d   1      -8.181  76.769 119.304  0.00  0.00     0.119 C 
BRANCH   8   9
ATOM      9  C   LIG d   1      -8.942  77.449 118.150  0.00  0.00     0.028 C 
ATOM     10  C   LIG d   1      -8.656  78.958 118.067  0.00  0.00     0.006 C 
ENDBRANCH   8   9
BRANCH   8  11
ATOM     11  C   LIG d   1      -7.321  77.871 119.928  0.00  0.00     0.028 C 
ATOM     12  C   LIG d   1      -6.014  77.336 120.535  0.00  0.00     0.006 C 
ENDBRANCH   8  11
ENDBRANCH   7   8
ENDBRANCH   1   7
BRANCH   6  13
ATOM     13  N   LIG d   1      -6.031  77.046 116.368  0.00  0.00    -0.311 N 
ATOM     14  C   LIG d   1      -4.991  77.674 116.915  0.00  0.00     0.210 C 
ATOM     15  C   LIG d   1      -4.928  79.179 116.641  0.00  0.00     0.109 C 
ATOM     16  O   LIG d   1      -4.098  77.120 117.574  0.00  0.00    -0.276 OA
ATOM     17  H   LIG d   1      -6.690  77.566 115.822  0.00  0.00     0.149 HD
ENDBRANCH   6  13
BRANCH   5  18
ATOM     18  N   LIG d   1      -5.085  74.883 114.429  0.00  0.00     0.381 N 
ATOM     19  H   LIG d   1      -5.268  74.885 113.445  0.00  0.00    -0.090 HD
ATOM     20  H   LIG d   1      -4.558  74.057 114.650  0.00  0.00    -0.090 HD
ATOM     21  H   LIG d   1      -4.564  75.695 114.678  0.00  0.00    -0.090 HD
ENDBRANCH   5  18
BRANCH   3  22
ATOM     22  C   LIG d   1      -8.619  72.089 116.052  0.00  0.00     0.382 C 
ATOM     23  O   LIG d   1      -9.868  72.170 116.138  0.00  0.00    -0.241 OA
ATOM     24  O   LIG d   1      -8.090  70.981 115.840  0.00  0.00    -0.241 OA
ENDBRANCH   3  22
TORSDOF 7
ENDMDL
