MODEL 1
REMARK VINA RESULT:      -5.9      0.000      0.000
REMARK  7 active torsions:
REMARK  status: ('A' for Active; 'I' for Inactive)
REMARK    1  A    between atoms: C_2  and  C_3 
REMARK    2  A    between atoms: C_3  and  O_6 
REMARK    3  A    between atoms: C_3  and  C_4 
REMARK    4  A    between atoms: C_7  and  O_6 
REMARK    5  A    between atoms: C_9  and  C_10 
REMARK    6  A    between atoms: N_15  and  C_14 
REMARK    7  A    between atoms: N_20  and  C_19 
REMARK       I    between atoms: C_22  and  N_20 
ROOT
ATOM      1  C   LIG d   1      -7.690  74.586 117.719  0.00  0.00     0.161 C 
ATOM      2  C   LIG d   1      -8.928  75.242 117.828  0.00  0.00     0.016 C 
ATOM      3  C   LIG d   1      -9.063  76.649 117.865  0.00  0.00     0.038 C 
ATOM      4  C   LIG d   1      -7.973  77.504 117.642  0.00  0.00     0.028 C 
ATOM      5  C   LIG d   1      -6.632  76.891 118.032  0.00  0.00    -0.047 C 
ATOM      6  C   LIG d   1      -6.502  75.503 117.363  0.00  0.00     0.091 C 
ENDROOT
BRANCH   1   7
ATOM      7  O   LIG d   1      -7.791  73.506 116.770  0.00  0.00    -0.368 OA
BRANCH   7   8
ATOM      8  C   LIG d   1      -7.854  72.170 117.328  0.00  0.00     0.119 C 
BRANCH   8   9
ATOM      9  C   LIG d   1      -6.783  71.321 116.618  0.00  0.00     0.028 C 
ATOM     10  C   LIG d   1      -6.433  71.864 115.222  0.00  0.00     0.006 C 
ENDBRANCH   8   9
BRANCH   8  11
ATOM     11  C   LIG d   1      -9.189  71.493 117.005  0.00  0.00     0.028 C 
ATOM     12  C   LIG d   1      -9.183  69.987 117.314  0.00  0.00     0.006 C 
ENDBRANCH   8  11
ENDBRANCH   7   8
ENDBRANCH   1   7
BRANCH   6  13
ATOM     13  N   LIG d   1      -5.255  74.798 117.760  0.00  0.00    -0.311 N 
ATOM     14  C   LIG d   1      -4.310  74.436 116.893  0.00  0.00     0.210 C 
ATOM     15  C   LIG d   1      -3.115  73.702 117.509  0.00  0.00     0.109 C 
ATOM     16  O   LIG d   1      -4.333  74.682 115.678  0.00  0.00    -0.276 OA
ATOM     17  H   LIG d   1      -5.140  74.587 118.732  0.00  0.00     0.149 HD
ENDBRANCH   6  13
BRANCH   5  18
ATOM     18  N   LIG d   1      -5.575  77.833 117.620  0.00  0.00     0.381 N 
ATOM     19  H   LIG d   1      -5.730  78.124 116.675  0.00  0.00    -0.090 HD
ATOM     20  H   LIG d   1      -4.687  77.365 117.664  0.00  0.00    -0.090 HD
ATOM     21  H   LIG d   1      -5.571  78.626 118.223  0.00  0.00    -0.090 HD
ENDBRANCH   5  18
BRANCH   3  22
ATOM     22  C   LIG d   1     -10.292  77.214 118.167  0.00  0.00     0.382 C 
ATOM     23  O   LIG d   1     -10.359  78.413 118.527  0.00  0.00    -0.241 OA
ATOM     24  O   LIG d   1     -11.330  76.526 118.126  0.00  0.00    -0.241 OA
ENDBRANCH   3  22
TORSDOF 7
ENDMDL
MODEL 2
REMARK VINA RESULT:      -5.7      1.650      2.428
REMARK  7 active torsions:
REMARK  status: ('A' for Active; 'I' for Inactive)
REMARK    1  A    between atoms: C_2  and  C_3 
REMARK    2  A    between atoms: C_3  and  O_6 
REMARK    3  A    between atoms: C_3  and  C_4 
REMARK    4  A    between atoms: C_7  and  O_6 
REMARK    5  A    between atoms: C_9  and  C_10 
REMARK    6  A    between atoms: N_15  and  C_14 
REMARK    7  A    between atoms: N_20  and  C_19 
REMARK       I    between atoms: C_22  and  N_20 
ROOT
ATOM      1  C   LIG d   1      -7.110  74.543 118.383  0.00  0.00     0.161 C 
ATOM      2  C   LIG d   1      -8.454  74.583 117.976  0.00  0.00     0.016 C 
ATOM      3  C   LIG d   1      -9.167  75.785 117.761  0.00  0.00     0.038 C 
ATOM      4  C   LIG d   1      -8.535  77.037 117.792  0.00  0.00     0.028 C 
ATOM      5  C   LIG d   1      -7.304  77.072 118.692  0.00  0.00    -0.047 C 
ATOM      6  C   LIG d   1      -6.373  75.896 118.315  0.00  0.00     0.091 C 
ENDROOT
BRANCH   1   7
ATOM      7  O   LIG d   1      -6.399  73.546 117.623  0.00  0.00    -0.368 OA
BRANCH   7   8
ATOM      8  C   LIG d   1      -6.842  73.350 116.257  0.00  0.00     0.119 C 
BRANCH   8   9
ATOM      9  C   LIG d   1      -7.040  71.836 116.047  0.00  0.00     0.028 C 
ATOM     10  C   LIG d   1      -8.434  71.360 116.488  0.00  0.00     0.006 C 
ENDBRANCH   8   9
BRANCH   8  11
ATOM     11  C   LIG d   1      -5.758  73.760 115.256  0.00  0.00     0.028 C 
ATOM     12  C   LIG d   1      -5.876  75.228 114.817  0.00  0.00     0.006 C 
ENDBRANCH   8  11
ENDBRANCH   7   8
ENDBRANCH   1   7
BRANCH   6  13
ATOM     13  N   LIG d   1      -5.185  75.807 119.203  0.00  0.00    -0.311 N 
ATOM     14  C   LIG d   1      -3.940  75.672 118.750  0.00  0.00     0.210 C 
ATOM     15  C   LIG d   1      -2.863  75.578 119.836  0.00  0.00     0.109 C 
ATOM     16  O   LIG d   1      -3.621  75.653 117.552  0.00  0.00    -0.276 OA
ATOM     17  H   LIG d   1      -5.349  75.845 120.190  0.00  0.00     0.149 HD
ENDBRANCH   6  13
BRANCH   5  18
ATOM     18  N   LIG d   1      -6.666  78.391 118.524  0.00  0.00     0.381 N 
ATOM     19  H   LIG d   1      -6.130  78.614 119.339  0.00  0.00    -0.090 HD
ATOM     20  H   LIG d   1      -7.383  79.087 118.418  0.00  0.00    -0.090 HD
ATOM     21  H   LIG d   1      -6.077  78.385 117.721  0.00  0.00    -0.090 HD
ENDBRANCH   5  18
BRANCH   3  22
ATOM     22  C   LIG d   1     -10.536  75.744 117.549  0.00  0.00     0.382 C 
ATOM     23  O   LIG d   1     -11.268  76.659 117.998  0.00  0.00    -0.241 OA
ATOM     24  O   LIG d   1     -11.055  74.780 116.954  0.00  0.00    -0.241 OA
ENDBRANCH   3  22
TORSDOF 7
ENDMDL
MODEL 3
REMARK VINA RESULT:      -5.2      2.630      4.429
REMARK  7 active torsions:
REMARK  status: ('A' for Active; 'I' for Inactive)
REMARK    1  A    between atoms: C_2  and  C_3 
REMARK    2  A    between atoms: C_3  and  O_6 
REMARK    3  A    between atoms: C_3  and  C_4 
REMARK    4  A    between atoms: C_7  and  O_6 
REMARK    5  A    between atoms: C_9  and  C_10 
REMARK    6  A    between atoms: N_15  and  C_14 
REMARK    7  A    between atoms: N_20  and  C_19 
REMARK       I    between atoms: C_22  and  N_20 
ROOT
ATOM      1  C   LIG d   1      -7.242  76.856 116.998  0.00  0.00     0.161 C 
ATOM      2  C   LIG d   1      -6.837  78.189 117.176  0.00  0.00     0.016 C 
ATOM      3  C   LIG d   1      -7.515  79.102 118.017  0.00  0.00     0.038 C 
ATOM      4  C   LIG d   1      -8.562  78.698 118.859  0.00  0.00     0.028 C 
ATOM      5  C   LIG d   1      -9.325  77.485 118.337  0.00  0.00    -0.047 C 
ATOM      6  C   LIG d   1      -8.315  76.367 117.993  0.00  0.00     0.091 C 
ENDROOT
BRANCH   1   7
ATOM      7  O   LIG d   1      -6.092  75.987 117.034  0.00  0.00    -0.368 OA
BRANCH   7   8
ATOM      8  C   LIG d   1      -5.844  75.208 115.838  0.00  0.00     0.119 C 
BRANCH   8   9
ATOM      9  C   LIG d   1      -5.361  73.815 116.286  0.00  0.00     0.028 C 
ATOM     10  C   LIG d   1      -6.125  72.676 115.589  0.00  0.00     0.006 C 
ENDBRANCH   8   9
BRANCH   8  11
ATOM     11  C   LIG d   1      -4.690  75.794 115.020  0.00  0.00     0.028 C 
ATOM     12  C   LIG d   1      -4.899  75.648 113.505  0.00  0.00     0.006 C 
ENDBRANCH   8  11
ENDBRANCH   7   8
ENDBRANCH   1   7
BRANCH   6  13
ATOM     13  N   LIG d   1      -8.972  75.174 117.396  0.00  0.00    -0.311 N 
ATOM     14  C   LIG d   1      -8.728  73.927 117.794  0.00  0.00     0.210 C 
ATOM     15  C   LIG d   1      -9.497  72.843 117.033  0.00  0.00     0.109 C 
ATOM     16  O   LIG d   1      -7.972  73.618 118.728  0.00  0.00    -0.276 OA
ATOM     17  H   LIG d   1      -9.624  75.336 116.654  0.00  0.00     0.149 HD
ENDBRANCH   6  13
BRANCH   5  18
ATOM     18  N   LIG d   1     -10.296  77.089 119.375  0.00  0.00     0.381 N 
ATOM     19  H   LIG d   1     -11.037  76.559 118.961  0.00  0.00    -0.090 HD
ATOM     20  H   LIG d   1     -10.690  77.917 119.784  0.00  0.00    -0.090 HD
ATOM     21  H   LIG d   1      -9.842  76.547 120.077  0.00  0.00    -0.090 HD
ENDBRANCH   5  18
BRANCH   3  22
ATOM     22  C   LIG d   1      -7.171  80.445 117.991  0.00  0.00     0.382 C 
ATOM     23  O   LIG d   1      -7.703  81.212 117.153  0.00  0.00    -0.241 OA
ATOM     24  O   LIG d   1      -6.303  80.890 118.766  0.00  0.00    -0.241 OA
ENDBRANCH   3  22
TORSDOF 7
ENDMDL
MODEL 4
REMARK VINA RESULT:      -5.2      1.558      1.717
REMARK  7 active torsions:
REMARK  status: ('A' for Active; 'I' for Inactive)
REMARK    1  A    between atoms: C_2  and  C_3 
REMARK    2  A    between atoms: C_3  and  O_6 
REMARK    3  A    between atoms: C_3  and  C_4 
REMARK    4  A    between atoms: C_7  and  O_6 
REMARK    5  A    between atoms: C_9  and  C_10 
REMARK    6  A    between atoms: N_15  and  C_14 
REMARK    7  A    between atoms: N_20  and  C_19 
REMARK       I    between atoms: C_22  and  N_20 
ROOT
ATOM      1  C   LIG d   1      -7.261  75.937 117.798  0.00  0.00     0.161 C 
ATOM      2  C   LIG d   1      -8.413  76.568 118.295  0.00  0.00     0.016 C 
ATOM      3  C   LIG d   1      -8.539  77.971 118.423  0.00  0.00     0.038 C 
ATOM      4  C   LIG d   1      -7.570  78.851 117.918  0.00  0.00     0.028 C 
ATOM      5  C   LIG d   1      -6.171  78.247 117.867  0.00  0.00    -0.047 C 
ATOM      6  C   LIG d   1      -6.238  76.885 117.139  0.00  0.00     0.091 C 
ENDROOT
BRANCH   1   7
ATOM      7  O   LIG d   1      -7.634  74.888 116.883  0.00  0.00    -0.368 OA
BRANCH   7   8
ATOM      8  C   LIG d   1      -7.752  73.560 117.449  0.00  0.00     0.119 C 
BRANCH   8   9
ATOM      9  C   LIG d   1      -6.602  72.709 116.876  0.00  0.00     0.028 C 
ATOM     10  C   LIG d   1      -6.128  73.211 115.502  0.00  0.00     0.006 C 
ENDBRANCH   8   9
BRANCH   8  11
ATOM     11  C   LIG d   1      -9.038  72.868 116.986  0.00  0.00     0.028 C 
ATOM     12  C   LIG d   1      -8.966  71.337 117.102  0.00  0.00     0.006 C 
ENDBRANCH   8  11
ENDBRANCH   7   8
ENDBRANCH   1   7
BRANCH   6  13
ATOM     13  N   LIG d   1      -4.925  76.188 117.119  0.00  0.00    -0.311 N 
ATOM     14  C   LIG d   1      -4.064  76.274 116.107  0.00  0.00     0.210 C 
ATOM     15  C   LIG d   1      -2.778  75.460 116.281  0.00  0.00     0.109 C 
ATOM     16  O   LIG d   1      -4.228  76.974 115.096  0.00  0.00    -0.276 OA
ATOM     17  H   LIG d   1      -4.697  75.623 117.914  0.00  0.00     0.149 HD
ENDBRANCH   6  13
BRANCH   5  18
ATOM     18  N   LIG d   1      -5.290  79.220 117.194  0.00  0.00     0.381 N 
ATOM     19  H   LIG d   1      -5.325  79.081 116.204  0.00  0.00    -0.090 HD
ATOM     20  H   LIG d   1      -4.344  79.068 117.500  0.00  0.00    -0.090 HD
ATOM     21  H   LIG d   1      -5.574  80.148 117.417  0.00  0.00    -0.090 HD
ENDBRANCH   5  18
BRANCH   3  22
ATOM     22  C   LIG d   1      -9.625  78.505 119.098  0.00  0.00     0.382 C 
ATOM     23  O   LIG d   1      -9.912  78.094 120.249  0.00  0.00    -0.241 OA
ATOM     24  O   LIG d   1     -10.349  79.360 118.555  0.00  0.00    -0.241 OA
ENDBRANCH   3  22
TORSDOF 7
ENDMDL
MODEL 5
REMARK VINA RESULT:      -5.1      2.319      5.000
REMARK  7 active torsions:
REMARK  status: ('A' for Active; 'I' for Inactive)
REMARK    1  A    between atoms: C_2  and  C_3 
REMARK    2  A    between atoms: C_3  and  O_6 
REMARK    3  A    between atoms: C_3  and  C_4 
REMARK    4  A    between atoms: C_7  and  O_6 
REMARK    5  A    between atoms: C_9  and  C_10 
REMARK    6  A    between atoms: N_15  and  C_14 
REMARK    7  A    between atoms: N_20  and  C_19 
REMARK       I    between atoms: C_22  and  N_20 
ROOT
ATOM      1  C   LIG d   1      -7.022  74.889 117.931  0.00  0.00     0.161 C 
ATOM      2  C   LIG d   1      -7.165  73.558 117.503  0.00  0.00     0.016 C 
ATOM      3  C   LIG d   1      -8.387  73.016 117.042  0.00  0.00     0.038 C 
ATOM      4  C   LIG d   1      -9.521  73.816 116.832  0.00  0.00     0.028 C 
ATOM      5  C   LIG d   1      -9.564  75.051 117.726  0.00  0.00    -0.047 C 
ATOM      6  C   LIG d   1      -8.220  75.805 117.605  0.00  0.00     0.091 C 
ENDROOT
BRANCH   1   7
ATOM      7  O   LIG d   1      -5.805  75.445 117.395  0.00  0.00    -0.368 OA
BRANCH   7   8
ATOM      8  C   LIG d   1      -5.319  74.852 116.167  0.00  0.00     0.119 C 
BRANCH   8   9
ATOM      9  C   LIG d   1      -3.782  74.796 116.256  0.00  0.00     0.028 C 
ATOM     10  C   LIG d   1      -3.292  73.865 117.377  0.00  0.00     0.006 C 
ENDBRANCH   8   9
BRANCH   8  11
ATOM     11  C   LIG d   1      -5.624  75.742 114.959  0.00  0.00     0.028 C 
ATOM     12  C   LIG d   1      -4.820  75.348 113.709  0.00  0.00     0.006 C 
ENDBRANCH   8  11
ENDBRANCH   7   8
ENDBRANCH   1   7
BRANCH   6  13
ATOM     13  N   LIG d   1      -8.146  76.981 118.511  0.00  0.00    -0.311 N 
ATOM     14  C   LIG d   1      -7.621  78.151 118.152  0.00  0.00     0.210 C 
ATOM     15  C   LIG d   1      -7.627  79.224 119.245  0.00  0.00     0.109 C 
ATOM     16  O   LIG d   1      -7.181  78.412 117.022  0.00  0.00    -0.276 OA
ATOM     17  H   LIG d   1      -8.509  76.866 119.437  0.00  0.00     0.149 HD
ENDBRANCH   6  13
BRANCH   5  18
ATOM     18  N   LIG d   1     -10.722  75.863 117.307  0.00  0.00     0.381 N 
ATOM     19  H   LIG d   1     -11.046  76.413 118.078  0.00  0.00    -0.090 HD
ATOM     20  H   LIG d   1     -11.465  75.248 117.025  0.00  0.00    -0.090 HD
ATOM     21  H   LIG d   1     -10.466  76.457 116.550  0.00  0.00    -0.090 HD
ENDBRANCH   5  18
BRANCH   3  22
ATOM     22  C   LIG d   1      -8.494  71.651 116.822  0.00  0.00     0.382 C 
ATOM     23  O   LIG d   1      -9.300  70.969 117.499  0.00  0.00    -0.241 OA
ATOM     24  O   LIG d   1      -7.763  71.087 115.986  0.00  0.00    -0.241 OA
ENDBRANCH   3  22
TORSDOF 7
ENDMDL
MODEL 6
REMARK VINA RESULT:      -5.1      2.151      4.759
REMARK  7 active torsions:
REMARK  status: ('A' for Active; 'I' for Inactive)
REMARK    1  A    between atoms: C_2  and  C_3 
REMARK    2  A    between atoms: C_3  and  O_6 
REMARK    3  A    between atoms: C_3  and  C_4 
REMARK    4  A    between atoms: C_7  and  O_6 
REMARK    5  A    between atoms: C_9  and  C_10 
REMARK    6  A    between atoms: N_15  and  C_14 
REMARK    7  A    between atoms: N_20  and  C_19 
REMARK       I    between atoms: C_22  and  N_20 
ROOT
ATOM      1  C   LIG d   1      -6.802  75.149 116.529  0.00  0.00     0.161 C 
ATOM      2  C   LIG d   1      -5.785  74.878 115.599  0.00  0.00     0.016 C 
ATOM      3  C   LIG d   1      -4.678  75.730 115.386  0.00  0.00     0.038 C 
ATOM      4  C   LIG d   1      -4.432  76.845 116.202  0.00  0.00     0.028 C 
ATOM      5  C   LIG d   1      -5.696  77.434 116.818  0.00  0.00    -0.047 C 
ATOM      6  C   LIG d   1      -6.493  76.303 117.506  0.00  0.00     0.091 C 
ENDROOT
BRANCH   1   7
ATOM      7  O   LIG d   1      -7.130  73.950 117.258  0.00  0.00    -0.368 OA
BRANCH   7   8
ATOM      8  C   LIG d   1      -7.996  73.008 116.579  0.00  0.00     0.119 C 
BRANCH   8   9
ATOM      9  C   LIG d   1      -9.366  73.046 117.285  0.00  0.00     0.028 C 
ATOM     10  C   LIG d   1     -10.149  74.333 116.976  0.00  0.00     0.006 C 
ENDBRANCH   8   9
BRANCH   8  11
ATOM     11  C   LIG d   1      -7.495  71.570 116.745  0.00  0.00     0.028 C 
ATOM     12  C   LIG d   1      -8.629  70.573 117.032  0.00  0.00     0.006 C 
ENDBRANCH   8  11
ENDBRANCH   7   8
ENDBRANCH   1   7
BRANCH   6  13
ATOM     13  N   LIG d   1      -7.787  76.779 118.063  0.00  0.00    -0.311 N 
ATOM     14  C   LIG d   1      -7.948  77.141 119.334  0.00  0.00     0.210 C 
ATOM     15  C   LIG d   1      -9.368  77.581 119.705  0.00  0.00     0.109 C 
ATOM     16  O   LIG d   1      -7.044  77.171 120.182  0.00  0.00    -0.276 OA
ATOM     17  H   LIG d   1      -8.567  76.816 117.437  0.00  0.00     0.149 HD
ENDBRANCH   6  13
BRANCH   5  18
ATOM     18  N   LIG d   1      -5.282  78.499 117.751  0.00  0.00     0.381 N 
ATOM     19  H   LIG d   1      -4.980  78.095 118.614  0.00  0.00    -0.090 HD
ATOM     20  H   LIG d   1      -6.071  79.092 117.939  0.00  0.00    -0.090 HD
ATOM     21  H   LIG d   1      -4.544  79.035 117.350  0.00  0.00    -0.090 HD
ENDBRANCH   5  18
BRANCH   3  22
ATOM     22  C   LIG d   1      -3.823  75.493 114.320  0.00  0.00     0.382 C 
ATOM     23  O   LIG d   1      -3.998  76.089 113.230  0.00  0.00    -0.241 OA
ATOM     24  O   LIG d   1      -2.905  74.657 114.420  0.00  0.00    -0.241 OA
ENDBRANCH   3  22
TORSDOF 7
ENDMDL
MODEL 7
REMARK VINA RESULT:      -4.8      2.222      4.840
REMARK  7 active torsions:
REMARK  status: ('A' for Active; 'I' for Inactive)
REMARK    1  A    between atoms: C_2  and  C_3 
REMARK    2  A    between atoms: C_3  and  O_6 
REMARK    3  A    between atoms: C_3  and  C_4 
REMARK    4  A    between atoms: C_7  and  O_6 
REMARK    5  A    between atoms: C_9  and  C_10 
REMARK    6  A    between atoms: N_15  and  C_14 
REMARK    7  A    between atoms: N_20  and  C_19 
REMARK       I    between atoms: C_22  and  N_20 
ROOT
ATOM      1  C   LIG d   1      -6.638  76.166 116.913  0.00  0.00     0.161 C 
ATOM      2  C   LIG d   1      -8.014  76.266 117.181  0.00  0.00     0.016 C 
ATOM      3  C   LIG d   1      -8.853  75.145 117.371  0.00  0.00     0.038 C 
ATOM      4  C   LIG d   1      -8.342  73.841 117.455  0.00  0.00     0.028 C 
ATOM      5  C   LIG d   1      -7.037  73.652 116.689  0.00  0.00    -0.047 C 
ATOM      6  C   LIG d   1      -6.042  74.757 117.112  0.00  0.00     0.091 C 
ENDROOT
BRANCH   1   7
ATOM      7  O   LIG d   1      -5.915  77.132 117.701  0.00  0.00    -0.368 OA
BRANCH   7   8
ATOM      8  C   LIG d   1      -5.586  78.378 117.039  0.00  0.00     0.119 C 
BRANCH   8   9
ATOM      9  C   LIG d   1      -4.055  78.423 116.872  0.00  0.00     0.028 C 
ATOM     10  C   LIG d   1      -3.542  79.836 116.545  0.00  0.00     0.006 C 
ENDBRANCH   8   9
BRANCH   8  11
ATOM     11  C   LIG d   1      -5.935  79.584 117.915  0.00  0.00     0.028 C 
ATOM     12  C   LIG d   1      -7.430  79.937 117.876  0.00  0.00     0.006 C 
ENDBRANCH   8  11
ENDBRANCH   7   8
ENDBRANCH   1   7
BRANCH   6  13
ATOM     13  N   LIG d   1      -4.769  74.696 116.347  0.00  0.00    -0.311 N 
ATOM     14  C   LIG d   1      -3.569  74.658 116.924  0.00  0.00     0.210 C 
ATOM     15  C   LIG d   1      -2.385  74.617 115.952  0.00  0.00     0.109 C 
ATOM     16  O   LIG d   1      -3.373  74.621 118.148  0.00  0.00    -0.276 OA
ATOM     17  H   LIG d   1      -4.836  74.690 115.348  0.00  0.00     0.149 HD
ENDBRANCH   6  13
BRANCH   5  18
ATOM     18  N   LIG d   1      -6.545  72.291 116.975  0.00  0.00     0.381 N 
ATOM     19  H   LIG d   1      -6.139  71.897 116.150  0.00  0.00    -0.090 HD
ATOM     20  H   LIG d   1      -7.322  71.716 117.249  0.00  0.00    -0.090 HD
ATOM     21  H   LIG d   1      -5.869  72.319 117.706  0.00  0.00    -0.090 HD
ENDBRANCH   5  18
BRANCH   3  22
ATOM     22  C   LIG d   1     -10.227  75.319 117.438  0.00  0.00     0.382 C 
ATOM     23  O   LIG d   1     -10.704  76.330 118.008  0.00  0.00    -0.241 OA
ATOM     24  O   LIG d   1     -10.997  74.455 116.976  0.00  0.00    -0.241 OA
ENDBRANCH   3  22
TORSDOF 7
ENDMDL
MODEL 8
REMARK VINA RESULT:      -4.7      2.223      5.055
REMARK  7 active torsions:
REMARK  status: ('A' for Active; 'I' for Inactive)
REMARK    1  A    between atoms: C_2  and  C_3 
REMARK    2  A    between atoms: C_3  and  O_6 
REMARK    3  A    between atoms: C_3  and  C_4 
REMARK    4  A    between atoms: C_7  and  O_6 
REMARK    5  A    between atoms: C_9  and  C_10 
REMARK    6  A    between atoms: N_15  and  C_14 
REMARK    7  A    between atoms: N_20  and  C_19 
REMARK       I    between atoms: C_22  and  N_20 
ROOT
ATOM      1  C   LIG d   1      -6.160  74.901 117.196  0.00  0.00     0.161 C 
ATOM      2  C   LIG d   1      -6.595  73.634 116.772  0.00  0.00     0.016 C 
ATOM      3  C   LIG d   1      -7.938  73.202 116.863  0.00  0.00     0.038 C 
ATOM      4  C   LIG d   1      -8.972  74.069 117.247  0.00  0.00     0.028 C 
ATOM      5  C   LIG d   1      -8.507  75.197 118.162  0.00  0.00    -0.047 C 
ATOM      6  C   LIG d   1      -7.292  75.900 117.514  0.00  0.00     0.091 C 
ENDROOT
BRANCH   1   7
ATOM      7  O   LIG d   1      -5.259  75.460 116.220  0.00  0.00    -0.368 OA
BRANCH   7   8
ATOM      8  C   LIG d   1      -3.908  75.720 116.675  0.00  0.00     0.119 C 
BRANCH   8   9
ATOM      9  C   LIG d   1      -3.364  76.907 115.856  0.00  0.00     0.028 C 
ATOM     10  C   LIG d   1      -2.520  76.452 114.653  0.00  0.00     0.006 C 
ENDBRANCH   8   9
BRANCH   8  11
ATOM     11  C   LIG d   1      -2.977  74.546 116.356  0.00  0.00     0.028 C 
ATOM     12  C   LIG d   1      -2.608  73.723 117.600  0.00  0.00     0.006 C 
ENDBRANCH   8  11
ENDBRANCH   7   8
ENDBRANCH   1   7
BRANCH   6  13
ATOM     13  N   LIG d   1      -6.723  76.963 118.383  0.00  0.00    -0.311 N 
ATOM     14  C   LIG d   1      -6.352  78.159 117.930  0.00  0.00     0.210 C 
ATOM     15  C   LIG d   1      -5.771  79.100 118.990  0.00  0.00     0.109 C 
ATOM     16  O   LIG d   1      -6.478  78.542 116.757  0.00  0.00    -0.276 OA
ATOM     17  H   LIG d   1      -6.615  76.749 119.355  0.00  0.00     0.149 HD
ENDBRANCH   6  13
BRANCH   5  18
ATOM     18  N   LIG d   1      -9.654  76.101 118.372  0.00  0.00     0.381 N 
ATOM     19  H   LIG d   1     -10.277  76.045 117.591  0.00  0.00    -0.090 HD
ATOM     20  H   LIG d   1      -9.316  77.045 118.437  0.00  0.00    -0.090 HD
ATOM     21  H   LIG d   1     -10.135  75.854 119.208  0.00  0.00    -0.090 HD
ENDBRANCH   5  18
BRANCH   3  22
ATOM     22  C   LIG d   1      -8.252  71.876 116.606  0.00  0.00     0.382 C 
ATOM     23  O   LIG d   1      -7.498  71.183 115.881  0.00  0.00    -0.241 OA
ATOM     24  O   LIG d   1      -9.302  71.377 117.053  0.00  0.00    -0.241 OA
ENDBRANCH   3  22
TORSDOF 7
ENDMDL
MODEL 9
REMARK VINA RESULT:      -4.6      2.155      4.686
REMARK  7 active torsions:
REMARK  status: ('A' for Active; 'I' for Inactive)
REMARK    1  A    between atoms: C_2  and  C_3 
REMARK    2  A    between atoms: C_3  and  O_6 
REMARK    3  A    between atoms: C_3  and  C_4 
REMARK    4  A    between atoms: C_7  and  O_6 
REMARK    5  A    between atoms: C_9  and  C_10 
REMARK    6  A    between atoms: N_15  and  C_14 
REMARK    7  A    between atoms: N_20  and  C_19 
REMARK       I    between atoms: C_22  and  N_20 
ROOT
ATOM      1  C   LIG d   1      -6.909  76.576 116.811  0.00  0.00     0.161 C 
ATOM      2  C   LIG d   1      -8.271  76.690 117.135  0.00  0.00     0.016 C 
ATOM      3  C   LIG d   1      -9.097  75.581 117.432  0.00  0.00     0.038 C 
ATOM      4  C   LIG d   1      -8.575  74.286 117.574  0.00  0.00     0.028 C 
ATOM      5  C   LIG d   1      -7.306  74.052 116.762  0.00  0.00    -0.047 C 
ATOM      6  C   LIG d   1      -6.298  75.183 117.069  0.00  0.00     0.091 C 
ENDROOT
BRANCH   1   7
ATOM      7  O   LIG d   1      -6.155  77.590 117.503  0.00  0.00    -0.368 OA
BRANCH   7   8
ATOM      8  C   LIG d   1      -6.531  77.834 118.881  0.00  0.00     0.119 C 
BRANCH   8   9
ATOM      9  C   LIG d   1      -6.610  79.361 119.075  0.00  0.00     0.028 C 
ATOM     10  C   LIG d   1      -6.709  80.118 117.741  0.00  0.00     0.006 C 
ENDBRANCH   8   9
BRANCH   8  11
ATOM     11  C   LIG d   1      -5.444  77.358 119.848  0.00  0.00     0.028 C 
ATOM     12  C   LIG d   1      -4.030  77.766 119.403  0.00  0.00     0.006 C 
ENDBRANCH   8  11
ENDBRANCH   7   8
ENDBRANCH   1   7
BRANCH   6  13
ATOM     13  N   LIG d   1      -5.061  75.076 116.253  0.00  0.00    -0.311 N 
ATOM     14  C   LIG d   1      -3.860  74.820 116.771  0.00  0.00     0.210 C 
ATOM     15  C   LIG d   1      -2.715  74.772 115.755  0.00  0.00     0.109 C 
ATOM     16  O   LIG d   1      -3.641  74.596 117.971  0.00  0.00    -0.276 OA
ATOM     17  H   LIG d   1      -5.152  75.213 115.265  0.00  0.00     0.149 HD
ENDBRANCH   6  13
BRANCH   5  18
ATOM     18  N   LIG d   1      -6.796  72.712 117.110  0.00  0.00     0.381 N 
ATOM     19  H   LIG d   1      -7.533  72.160 117.501  0.00  0.00    -0.090 HD
ATOM     20  H   LIG d   1      -6.073  72.809 117.801  0.00  0.00    -0.090 HD
ATOM     21  H   LIG d   1      -6.431  72.265 116.298  0.00  0.00    -0.090 HD
ENDBRANCH   5  18
BRANCH   3  22
ATOM     22  C   LIG d   1     -10.467  75.756 117.551  0.00  0.00     0.382 C 
ATOM     23  O   LIG d   1     -11.249  74.842 117.197  0.00  0.00    -0.241 OA
ATOM     24  O   LIG d   1     -10.932  76.835 117.967  0.00  0.00    -0.241 OA
ENDBRANCH   3  22
TORSDOF 7
ENDMDL
