MODEL 1
REMARK VINA RESULT:      -5.8      0.000      0.000
REMARK  7 active torsions:
REMARK  status: ('A' for Active; 'I' for Inactive)
REMARK    1  A    between atoms: C_2  and  C_3 
REMARK    2  A    between atoms: C_3  and  O_6 
REMARK    3  A    between atoms: C_3  and  C_4 
REMARK    4  A    between atoms: C_7  and  O_6 
REMARK    5  A    between atoms: C_9  and  C_10 
REMARK    6  A    between atoms: N_15  and  C_14 
REMARK    7  A    between atoms: N_20  and  C_19 
REMARK       I    between atoms: C_22  and  N_20 
ROOT
ATOM      1  C   LIG d   1      -7.062  77.495 117.319  0.00  0.00     0.161 C 
ATOM      2  C   LIG d   1      -6.073  77.477 116.321  0.00  0.00     0.016 C 
ATOM      3  C   LIG d   1      -5.775  76.335 115.542  0.00  0.00     0.038 C 
ATOM      4  C   LIG d   1      -6.555  75.171 115.604  0.00  0.00     0.028 C 
ATOM      5  C   LIG d   1      -7.242  74.973 116.951  0.00  0.00    -0.047 C 
ATOM      6  C   LIG d   1      -7.998  76.268 117.324  0.00  0.00     0.091 C 
ENDROOT
BRANCH   1   7
ATOM      7  O   LIG d   1      -7.830  78.711 117.223  0.00  0.00    -0.368 OA
BRANCH   7   8
ATOM      8  C   LIG d   1      -7.573  79.710 118.240  0.00  0.00     0.119 C 
BRANCH   8   9
ATOM      9  C   LIG d   1      -6.750  79.034 119.355  0.00  0.00     0.028 C 
ATOM     10  C   LIG d   1      -7.477  79.044 120.710  0.00  0.00     0.006 C 
ENDBRANCH   8   9
BRANCH   8  11
ATOM     11  C   LIG d   1      -8.870  80.165 118.914  0.00  0.00     0.028 C 
ATOM     12  C   LIG d   1      -9.834  80.863 117.941  0.00  0.00     0.006 C 
ENDBRANCH   8  11
ENDBRANCH   7   8
ENDBRANCH   1   7
BRANCH   6  13
ATOM     13  N   LIG d   1      -8.628  76.190 118.668  0.00  0.00    -0.311 N 
ATOM     14  C   LIG d   1      -9.853  76.642 118.931  0.00  0.00     0.210 C 
ATOM     15  C   LIG d   1     -10.304  76.481 120.386  0.00  0.00     0.109 C 
ATOM     16  O   LIG d   1     -10.622  77.132 118.089  0.00  0.00    -0.276 OA
ATOM     17  H   LIG d   1      -8.086  75.778 119.403  0.00  0.00     0.149 HD
ENDBRANCH   6  13
BRANCH   5  18
ATOM     18  N   LIG d   1      -8.128  73.800 116.832  0.00  0.00     0.381 N 
ATOM     19  H   LIG d   1      -8.338  73.440 117.741  0.00  0.00    -0.090 HD
ATOM     20  H   LIG d   1      -7.652  73.084 116.312  0.00  0.00    -0.090 HD
ATOM     21  H   LIG d   1      -8.970  74.055 116.365  0.00  0.00    -0.090 HD
ENDBRANCH   5  18
BRANCH   3  22
ATOM     22  C   LIG d   1      -4.661  76.338 114.716  0.00  0.00     0.382 C 
ATOM     23  O   LIG d   1      -4.144  77.426 114.365  0.00  0.00    -0.241 OA
ATOM     24  O   LIG d   1      -4.193  75.268 114.283  0.00  0.00    -0.241 OA
ENDBRANCH   3  22
TORSDOF 7
ENDMDL
MODEL 2
REMARK VINA RESULT:      -5.5      2.024      5.249
REMARK  7 active torsions:
REMARK  status: ('A' for Active; 'I' for Inactive)
REMARK    1  A    between atoms: C_2  and  C_3 
REMARK    2  A    between atoms: C_3  and  O_6 
REMARK    3  A    between atoms: C_3  and  C_4 
REMARK    4  A    between atoms: C_7  and  O_6 
REMARK    5  A    between atoms: C_9  and  C_10 
REMARK    6  A    between atoms: N_15  and  C_14 
REMARK    7  A    between atoms: N_20  and  C_19 
REMARK       I    between atoms: C_22  and  N_20 
ROOT
ATOM      1  C   LIG d   1      -6.880  77.087 116.919  0.00  0.00     0.161 C 
ATOM      2  C   LIG d   1      -6.971  78.459 117.207  0.00  0.00     0.016 C 
ATOM      3  C   LIG d   1      -7.916  79.005 118.106  0.00  0.00     0.038 C 
ATOM      4  C   LIG d   1      -8.740  78.192 118.898  0.00  0.00     0.028 C 
ATOM      5  C   LIG d   1      -9.032  76.833 118.273  0.00  0.00    -0.047 C 
ATOM      6  C   LIG d   1      -7.697  76.174 117.858  0.00  0.00     0.091 C 
ENDROOT
BRANCH   1   7
ATOM      7  O   LIG d   1      -5.497  76.681 116.905  0.00  0.00    -0.368 OA
BRANCH   7   8
ATOM      8  C   LIG d   1      -4.840  76.704 115.614  0.00  0.00     0.119 C 
BRANCH   8   9
ATOM      9  C   LIG d   1      -5.720  75.906 114.632  0.00  0.00     0.028 C 
ATOM     10  C   LIG d   1      -5.329  74.420 114.570  0.00  0.00     0.006 C 
ENDBRANCH   8   9
BRANCH   8  11
ATOM     11  C   LIG d   1      -3.502  75.960 115.656  0.00  0.00     0.028 C 
ATOM     12  C   LIG d   1      -2.739  76.182 116.972  0.00  0.00     0.006 C 
ENDBRANCH   8  11
ENDBRANCH   7   8
ENDBRANCH   1   7
BRANCH   6  13
ATOM     13  N   LIG d   1      -7.897  74.877 117.161  0.00  0.00    -0.311 N 
ATOM     14  C   LIG d   1      -7.957  73.706 117.794  0.00  0.00     0.210 C 
ATOM     15  C   LIG d   1      -8.149  72.489 116.884  0.00  0.00     0.109 C 
ATOM     16  O   LIG d   1      -7.901  73.564 119.025  0.00  0.00    -0.276 OA
ATOM     17  H   LIG d   1      -7.984  74.903 116.164  0.00  0.00     0.149 HD
ENDBRANCH   6  13
BRANCH   5  18
ATOM     18  N   LIG d   1      -9.785  76.039 119.263  0.00  0.00     0.381 N 
ATOM     19  H   LIG d   1      -9.159  75.680 119.956  0.00  0.00    -0.090 HD
ATOM     20  H   LIG d   1     -10.218  75.262 118.795  0.00  0.00    -0.090 HD
ATOM     21  H   LIG d   1     -10.481  76.606 119.696  0.00  0.00    -0.090 HD
ENDBRANCH   5  18
BRANCH   3  22
ATOM     22  C   LIG d   1      -8.070  80.380 118.189  0.00  0.00     0.382 C 
ATOM     23  O   LIG d   1      -7.723  80.988 119.230  0.00  0.00    -0.241 OA
ATOM     24  O   LIG d   1      -8.594  81.015 117.254  0.00  0.00    -0.241 OA
ENDBRANCH   3  22
TORSDOF 7
ENDMDL
MODEL 3
REMARK VINA RESULT:      -5.5      2.076      4.203
REMARK  7 active torsions:
REMARK  status: ('A' for Active; 'I' for Inactive)
REMARK    1  A    between atoms: C_2  and  C_3 
REMARK    2  A    between atoms: C_3  and  O_6 
REMARK    3  A    between atoms: C_3  and  C_4 
REMARK    4  A    between atoms: C_7  and  O_6 
REMARK    5  A    between atoms: C_9  and  C_10 
REMARK    6  A    between atoms: N_15  and  C_14 
REMARK    7  A    between atoms: N_20  and  C_19 
REMARK       I    between atoms: C_22  and  N_20 
ROOT
ATOM      1  C   LIG d   1      -7.667  76.514 116.642  0.00  0.00     0.161 C 
ATOM      2  C   LIG d   1      -6.909  75.989 115.582  0.00  0.00     0.016 C 
ATOM      3  C   LIG d   1      -5.544  76.294 115.375  0.00  0.00     0.038 C 
ATOM      4  C   LIG d   1      -4.800  77.031 116.308  0.00  0.00     0.028 C 
ATOM      5  C   LIG d   1      -5.646  77.999 117.129  0.00  0.00    -0.047 C 
ATOM      6  C   LIG d   1      -6.844  77.231 117.732  0.00  0.00     0.091 C 
ENDROOT
BRANCH   1   7
ATOM      7  O   LIG d   1      -8.475  75.474 117.227  0.00  0.00    -0.368 OA
BRANCH   7   8
ATOM      8  C   LIG d   1      -7.780  74.257 117.594  0.00  0.00     0.119 C 
BRANCH   8   9
ATOM      9  C   LIG d   1      -8.229  73.154 116.617  0.00  0.00     0.028 C 
ATOM     10  C   LIG d   1      -8.260  71.764 117.274  0.00  0.00     0.006 C 
ENDBRANCH   8   9
BRANCH   8  11
ATOM     11  C   LIG d   1      -8.207  73.768 118.981  0.00  0.00     0.028 C 
ATOM     12  C   LIG d   1      -8.467  74.920 119.965  0.00  0.00     0.006 C 
ENDBRANCH   8  11
ENDBRANCH   7   8
ENDBRANCH   1   7
BRANCH   6  13
ATOM     13  N   LIG d   1      -7.769  78.121 118.482  0.00  0.00    -0.311 N 
ATOM     14  C   LIG d   1      -7.637  78.390 119.779  0.00  0.00     0.210 C 
ATOM     15  C   LIG d   1      -8.710  79.316 120.360  0.00  0.00     0.109 C 
ATOM     16  O   LIG d   1      -6.715  77.975 120.497  0.00  0.00    -0.276 OA
ATOM     17  H   LIG d   1      -8.528  78.525 117.969  0.00  0.00     0.149 HD
ENDBRANCH   6  13
BRANCH   5  18
ATOM     18  N   LIG d   1      -4.769  78.599 118.153  0.00  0.00     0.381 N 
ATOM     19  H   LIG d   1      -4.588  77.932 118.876  0.00  0.00    -0.090 HD
ATOM     20  H   LIG d   1      -5.239  79.388 118.562  0.00  0.00    -0.090 HD
ATOM     21  H   LIG d   1      -3.912  78.892 117.738  0.00  0.00    -0.090 HD
ENDBRANCH   5  18
BRANCH   3  22
ATOM     22  C   LIG d   1      -4.920  75.893 114.204  0.00  0.00     0.382 C 
ATOM     23  O   LIG d   1      -4.848  74.674 113.917  0.00  0.00    -0.241 OA
ATOM     24  O   LIG d   1      -4.389  76.732 113.452  0.00  0.00    -0.241 OA
ENDBRANCH   3  22
TORSDOF 7
ENDMDL
MODEL 4
REMARK VINA RESULT:      -5.4     13.312     15.614
REMARK  7 active torsions:
REMARK  status: ('A' for Active; 'I' for Inactive)
REMARK    1  A    between atoms: C_2  and  C_3 
REMARK    2  A    between atoms: C_3  and  O_6 
REMARK    3  A    between atoms: C_3  and  C_4 
REMARK    4  A    between atoms: C_7  and  O_6 
REMARK    5  A    between atoms: C_9  and  C_10 
REMARK    6  A    between atoms: N_15  and  C_14 
REMARK    7  A    between atoms: N_20  and  C_19 
REMARK       I    between atoms: C_22  and  N_20 
ROOT
ATOM      1  C   LIG d   1      -6.124  92.486 117.960  0.00  0.00     0.161 C 
ATOM      2  C   LIG d   1      -7.056  91.744 117.216  0.00  0.00     0.016 C 
ATOM      3  C   LIG d   1      -6.702  90.648 116.396  0.00  0.00     0.038 C 
ATOM      4  C   LIG d   1      -5.402  90.122 116.382  0.00  0.00     0.028 C 
ATOM      5  C   LIG d   1      -4.329  91.149 116.727  0.00  0.00    -0.047 C 
ATOM      6  C   LIG d   1      -4.717  91.858 118.045  0.00  0.00     0.091 C 
ENDROOT
BRANCH   1   7
ATOM      7  O   LIG d   1      -6.641  92.736 119.282  0.00  0.00    -0.368 OA
BRANCH   7   8
ATOM      8  C   LIG d   1      -7.226  94.044 119.501  0.00  0.00     0.119 C 
BRANCH   8   9
ATOM      9  C   LIG d   1      -8.677  93.994 118.985  0.00  0.00     0.028 C 
ATOM     10  C   LIG d   1      -9.664  93.504 120.058  0.00  0.00     0.006 C 
ENDBRANCH   8   9
BRANCH   8  11
ATOM     11  C   LIG d   1      -6.530  95.114 118.654  0.00  0.00     0.028 C 
ATOM     12  C   LIG d   1      -7.513  95.921 117.791  0.00  0.00     0.006 C 
ENDBRANCH   8  11
ENDBRANCH   7   8
ENDBRANCH   1   7
BRANCH   6  13
ATOM     13  N   LIG d   1      -3.763  92.937 118.410  0.00  0.00    -0.311 N 
ATOM     14  C   LIG d   1      -2.729  92.756 119.229  0.00  0.00     0.210 C 
ATOM     15  C   LIG d   1      -1.882  94.006 119.489  0.00  0.00     0.109 C 
ATOM     16  O   LIG d   1      -2.414  91.671 119.740  0.00  0.00    -0.276 OA
ATOM     17  H   LIG d   1      -3.926  93.843 118.015  0.00  0.00     0.149 HD
ENDBRANCH   6  13
BRANCH   5  18
ATOM     18  N   LIG d   1      -3.040  90.437 116.811  0.00  0.00     0.381 N 
ATOM     19  H   LIG d   1      -2.573  90.681 117.661  0.00  0.00    -0.090 HD
ATOM     20  H   LIG d   1      -2.461  90.720 116.041  0.00  0.00    -0.090 HD
ATOM     21  H   LIG d   1      -3.192  89.453 116.777  0.00  0.00    -0.090 HD
ENDBRANCH   5  18
BRANCH   3  22
ATOM     22  C   LIG d   1      -7.647  90.092 115.547  0.00  0.00     0.382 C 
ATOM     23  O   LIG d   1      -7.830  90.582 114.406  0.00  0.00    -0.241 OA
ATOM     24  O   LIG d   1      -8.349  89.134 115.923  0.00  0.00    -0.241 OA
ENDBRANCH   3  22
TORSDOF 7
ENDMDL
MODEL 5
REMARK VINA RESULT:      -5.3      2.106      6.196
REMARK  7 active torsions:
REMARK  status: ('A' for Active; 'I' for Inactive)
REMARK    1  A    between atoms: C_2  and  C_3 
REMARK    2  A    between atoms: C_3  and  O_6 
REMARK    3  A    between atoms: C_3  and  C_4 
REMARK    4  A    between atoms: C_7  and  O_6 
REMARK    5  A    between atoms: C_9  and  C_10 
REMARK    6  A    between atoms: N_15  and  C_14 
REMARK    7  A    between atoms: N_20  and  C_19 
REMARK       I    between atoms: C_22  and  N_20 
ROOT
ATOM      1  C   LIG d   1      -7.753  76.254 117.917  0.00  0.00     0.161 C 
ATOM      2  C   LIG d   1      -9.128  76.163 118.193  0.00  0.00     0.016 C 
ATOM      3  C   LIG d   1      -9.893  77.238 118.701  0.00  0.00     0.038 C 
ATOM      4  C   LIG d   1      -9.363  78.531 118.825  0.00  0.00     0.028 C 
ATOM      5  C   LIG d   1      -7.853  78.549 119.036  0.00  0.00    -0.047 C 
ATOM      6  C   LIG d   1      -7.183  77.687 117.942  0.00  0.00     0.091 C 
ENDROOT
BRANCH   1   7
ATOM      7  O   LIG d   1      -7.466  75.621 116.655  0.00  0.00    -0.368 OA
BRANCH   7   8
ATOM      8  C   LIG d   1      -6.705  74.390 116.717  0.00  0.00     0.119 C 
BRANCH   8   9
ATOM      9  C   LIG d   1      -5.721  74.392 115.531  0.00  0.00     0.028 C 
ATOM     10  C   LIG d   1      -6.076  75.453 114.476  0.00  0.00     0.006 C 
ENDBRANCH   8   9
BRANCH   8  11
ATOM     11  C   LIG d   1      -7.603  73.169 116.497  0.00  0.00     0.028 C 
ATOM     12  C   LIG d   1      -7.908  72.410 117.798  0.00  0.00     0.006 C 
ENDBRANCH   8  11
ENDBRANCH   7   8
ENDBRANCH   1   7
BRANCH   6  13
ATOM     13  N   LIG d   1      -5.712  77.583 118.124  0.00  0.00    -0.311 N 
ATOM     14  C   LIG d   1      -4.837  77.744 117.133  0.00  0.00     0.210 C 
ATOM     15  C   LIG d   1      -3.368  77.575 117.533  0.00  0.00     0.109 C 
ATOM     16  O   LIG d   1      -5.136  78.044 115.967  0.00  0.00    -0.276 OA
ATOM     17  H   LIG d   1      -5.380  77.373 119.045  0.00  0.00     0.149 HD
ENDBRANCH   6  13
BRANCH   5  18
ATOM     18  N   LIG d   1      -7.416  79.958 119.011  0.00  0.00     0.381 N 
ATOM     19  H   LIG d   1      -8.124  80.524 118.589  0.00  0.00    -0.090 HD
ATOM     20  H   LIG d   1      -6.582  80.030 118.456  0.00  0.00    -0.090 HD
ATOM     21  H   LIG d   1      -7.235  80.275 119.938  0.00  0.00    -0.090 HD
ENDBRANCH   5  18
BRANCH   3  22
ATOM     22  C   LIG d   1     -11.193  77.015 119.128  0.00  0.00     0.382 C 
ATOM     23  O   LIG d   1     -11.467  77.059 120.351  0.00  0.00    -0.241 OA
ATOM     24  O   LIG d   1     -12.086  76.727 118.309  0.00  0.00    -0.241 OA
ENDBRANCH   3  22
TORSDOF 7
ENDMDL
MODEL 6
REMARK VINA RESULT:      -5.2      1.589      2.423
REMARK  7 active torsions:
REMARK  status: ('A' for Active; 'I' for Inactive)
REMARK    1  A    between atoms: C_2  and  C_3 
REMARK    2  A    between atoms: C_3  and  O_6 
REMARK    3  A    between atoms: C_3  and  C_4 
REMARK    4  A    between atoms: C_7  and  O_6 
REMARK    5  A    between atoms: C_9  and  C_10 
REMARK    6  A    between atoms: N_15  and  C_14 
REMARK    7  A    between atoms: N_20  and  C_19 
REMARK       I    between atoms: C_22  and  N_20 
ROOT
ATOM      1  C   LIG d   1      -5.991  77.453 117.768  0.00  0.00     0.161 C 
ATOM      2  C   LIG d   1      -5.129  77.189 116.691  0.00  0.00     0.016 C 
ATOM      3  C   LIG d   1      -5.533  76.509 115.519  0.00  0.00     0.038 C 
ATOM      4  C   LIG d   1      -6.876  76.179 115.280  0.00  0.00     0.028 C 
ATOM      5  C   LIG d   1      -7.686  75.976 116.555  0.00  0.00    -0.047 C 
ATOM      6  C   LIG d   1      -7.485  77.199 117.478  0.00  0.00     0.091 C 
ENDROOT
BRANCH   1   7
ATOM      7  O   LIG d   1      -5.793  78.803 118.232  0.00  0.00    -0.368 OA
BRANCH   7   8
ATOM      8  C   LIG d   1      -5.291  78.946 119.584  0.00  0.00     0.119 C 
BRANCH   8   9
ATOM      9  C   LIG d   1      -6.343  79.735 120.388  0.00  0.00     0.028 C 
ATOM     10  C   LIG d   1      -7.305  80.521 119.482  0.00  0.00     0.006 C 
ENDBRANCH   8   9
BRANCH   8  11
ATOM     11  C   LIG d   1      -4.024  79.806 119.620  0.00  0.00     0.028 C 
ATOM     12  C   LIG d   1      -2.889  79.232 118.757  0.00  0.00     0.006 C 
ENDBRANCH   8  11
ENDBRANCH   7   8
ENDBRANCH   1   7
BRANCH   6  13
ATOM     13  N   LIG d   1      -8.177  77.044 118.784  0.00  0.00    -0.311 N 
ATOM     14  C   LIG d   1      -9.406  77.498 119.021  0.00  0.00     0.210 C 
ATOM     15  C   LIG d   1      -9.925  77.250 120.441  0.00  0.00     0.109 C 
ATOM     16  O   LIG d   1     -10.129  78.054 118.181  0.00  0.00    -0.276 OA
ATOM     17  H   LIG d   1      -7.675  76.577 119.514  0.00  0.00     0.149 HD
ENDBRANCH   6  13
BRANCH   5  18
ATOM     18  N   LIG d   1      -9.094  75.774 116.161  0.00  0.00     0.381 N 
ATOM     19  H   LIG d   1      -9.209  75.994 115.192  0.00  0.00    -0.090 HD
ATOM     20  H   LIG d   1      -9.673  76.396 116.697  0.00  0.00    -0.090 HD
ATOM     21  H   LIG d   1      -9.363  74.829 116.329  0.00  0.00    -0.090 HD
ENDBRANCH   5  18
BRANCH   3  22
ATOM     22  C   LIG d   1      -4.583  76.117 114.589  0.00  0.00     0.382 C 
ATOM     23  O   LIG d   1      -3.793  75.180 114.857  0.00  0.00    -0.241 OA
ATOM     24  O   LIG d   1      -4.476  76.718 113.504  0.00  0.00    -0.241 OA
ENDBRANCH   3  22
TORSDOF 7
ENDMDL
MODEL 7
REMARK VINA RESULT:      -5.2     13.717     16.059
REMARK  7 active torsions:
REMARK  status: ('A' for Active; 'I' for Inactive)
REMARK    1  A    between atoms: C_2  and  C_3 
REMARK    2  A    between atoms: C_3  and  O_6 
REMARK    3  A    between atoms: C_3  and  C_4 
REMARK    4  A    between atoms: C_7  and  O_6 
REMARK    5  A    between atoms: C_9  and  C_10 
REMARK    6  A    between atoms: N_15  and  C_14 
REMARK    7  A    between atoms: N_20  and  C_19 
REMARK       I    between atoms: C_22  and  N_20 
ROOT
ATOM      1  C   LIG d   1      -4.624  91.817 117.543  0.00  0.00     0.161 C 
ATOM      2  C   LIG d   1      -5.218  91.147 116.461  0.00  0.00     0.016 C 
ATOM      3  C   LIG d   1      -6.297  91.675 115.715  0.00  0.00     0.038 C 
ATOM      4  C   LIG d   1      -6.759  92.986 115.908  0.00  0.00     0.028 C 
ATOM      5  C   LIG d   1      -6.527  93.508 117.321  0.00  0.00    -0.047 C 
ATOM      6  C   LIG d   1      -5.043  93.294 117.698  0.00  0.00     0.091 C 
ENDROOT
BRANCH   1   7
ATOM      7  O   LIG d   1      -3.190  91.709 117.458  0.00  0.00    -0.368 OA
BRANCH   7   8
ATOM      8  C   LIG d   1      -2.571  90.732 118.331  0.00  0.00     0.119 C 
BRANCH   8   9
ATOM      9  C   LIG d   1      -1.585  91.486 119.244  0.00  0.00     0.028 C 
ATOM     10  C   LIG d   1      -1.201  92.865 118.682  0.00  0.00     0.006 C 
ENDBRANCH   8   9
BRANCH   8  11
ATOM     11  C   LIG d   1      -1.713  89.741 117.539  0.00  0.00     0.028 C 
ATOM     12  C   LIG d   1      -2.269  88.309 117.577  0.00  0.00     0.006 C 
ENDBRANCH   8  11
ENDBRANCH   7   8
ENDBRANCH   1   7
BRANCH   6  13
ATOM     13  N   LIG d   1      -4.748  93.701 119.096  0.00  0.00    -0.311 N 
ATOM     14  C   LIG d   1      -4.283  94.905 119.427  0.00  0.00     0.210 C 
ATOM     15  C   LIG d   1      -4.028  95.111 120.923  0.00  0.00     0.109 C 
ATOM     16  O   LIG d   1      -4.089  95.832 118.626  0.00  0.00    -0.276 OA
ATOM     17  H   LIG d   1      -4.907  93.020 119.813  0.00  0.00     0.149 HD
ENDBRANCH   6  13
BRANCH   5  18
ATOM     18  N   LIG d   1      -6.930  94.927 117.344  0.00  0.00     0.381 N 
ATOM     19  H   LIG d   1      -7.139  95.205 118.282  0.00  0.00    -0.090 HD
ATOM     20  H   LIG d   1      -7.760  95.038 116.789  0.00  0.00    -0.090 HD
ATOM     21  H   LIG d   1      -6.198  95.495 116.977  0.00  0.00    -0.090 HD
ENDBRANCH   5  18
BRANCH   3  22
ATOM     22  C   LIG d   1      -6.950  90.875 114.791  0.00  0.00     0.382 C 
ATOM     23  O   LIG d   1      -7.867  91.357 114.082  0.00  0.00    -0.241 OA
ATOM     24  O   LIG d   1      -6.666  89.667 114.688  0.00  0.00    -0.241 OA
ENDBRANCH   3  22
TORSDOF 7
ENDMDL
MODEL 8
REMARK VINA RESULT:      -5.2     13.362     15.670
REMARK  7 active torsions:
REMARK  status: ('A' for Active; 'I' for Inactive)
REMARK    1  A    between atoms: C_2  and  C_3 
REMARK    2  A    between atoms: C_3  and  O_6 
REMARK    3  A    between atoms: C_3  and  C_4 
REMARK    4  A    between atoms: C_7  and  O_6 
REMARK    5  A    between atoms: C_9  and  C_10 
REMARK    6  A    between atoms: N_15  and  C_14 
REMARK    7  A    between atoms: N_20  and  C_19 
REMARK       I    between atoms: C_22  and  N_20 
ROOT
ATOM      1  C   LIG d   1      -4.074  92.183 117.861  0.00  0.00     0.161 C 
ATOM      2  C   LIG d   1      -5.166  93.059 117.747  0.00  0.00     0.016 C 
ATOM      3  C   LIG d   1      -6.247  92.845 116.861  0.00  0.00     0.038 C 
ATOM      4  C   LIG d   1      -6.382  91.655 116.131  0.00  0.00     0.028 C 
ATOM      5  C   LIG d   1      -5.052  90.971 115.835  0.00  0.00    -0.047 C 
ATOM      6  C   LIG d   1      -4.259  90.824 117.154  0.00  0.00     0.091 C 
ENDROOT
BRANCH   1   7
ATOM      7  O   LIG d   1      -3.749  91.985 119.251  0.00  0.00    -0.368 OA
BRANCH   7   8
ATOM      8  C   LIG d   1      -2.775  92.898 119.814  0.00  0.00     0.119 C 
BRANCH   8   9
ATOM      9  C   LIG d   1      -1.629  93.041 118.794  0.00  0.00     0.028 C 
ATOM     10  C   LIG d   1      -0.483  93.921 119.319  0.00  0.00     0.006 C 
ENDBRANCH   8   9
BRANCH   8  11
ATOM     11  C   LIG d   1      -2.128  92.315 121.074  0.00  0.00     0.028 C 
ATOM     12  C   LIG d   1      -1.891  90.800 120.975  0.00  0.00     0.006 C 
ENDBRANCH   8  11
ENDBRANCH   7   8
ENDBRANCH   1   7
BRANCH   6  13
ATOM     13  N   LIG d   1      -2.909  90.241 116.941  0.00  0.00    -0.311 N 
ATOM     14  C   LIG d   1      -2.450  89.189 117.617  0.00  0.00     0.210 C 
ATOM     15  C   LIG d   1      -1.024  88.760 117.257  0.00  0.00     0.109 C 
ATOM     16  O   LIG d   1      -3.100  88.550 118.458  0.00  0.00    -0.276 OA
ATOM     17  H   LIG d   1      -2.326  90.678 116.254  0.00  0.00     0.149 HD
ENDBRANCH   6  13
BRANCH   5  18
ATOM     18  N   LIG d   1      -5.349  89.677 115.192  0.00  0.00     0.381 N 
ATOM     19  H   LIG d   1      -5.250  88.937 115.858  0.00  0.00    -0.090 HD
ATOM     20  H   LIG d   1      -4.690  89.524 114.450  0.00  0.00    -0.090 HD
ATOM     21  H   LIG d   1      -6.276  89.683 114.826  0.00  0.00    -0.090 HD
ENDBRANCH   5  18
BRANCH   3  22
ATOM     22  C   LIG d   1      -7.186  93.847 116.668  0.00  0.00     0.382 C 
ATOM     23  O   LIG d   1      -7.993  93.773 115.710  0.00  0.00    -0.241 OA
ATOM     24  O   LIG d   1      -7.207  94.845 117.413  0.00  0.00    -0.241 OA
ENDBRANCH   3  22
TORSDOF 7
ENDMDL
MODEL 9
REMARK VINA RESULT:      -5.1     17.988     20.052
REMARK  7 active torsions:
REMARK  status: ('A' for Active; 'I' for Inactive)
REMARK    1  A    between atoms: C_2  and  C_3 
REMARK    2  A    between atoms: C_3  and  O_6 
REMARK    3  A    between atoms: C_3  and  C_4 
REMARK    4  A    between atoms: C_7  and  O_6 
REMARK    5  A    between atoms: C_9  and  C_10 
REMARK    6  A    between atoms: N_15  and  C_14 
REMARK    7  A    between atoms: N_20  and  C_19 
REMARK       I    between atoms: C_22  and  N_20 
ROOT
ATOM      1  C   LIG d   1       0.459  60.821 119.461  0.00  0.00     0.161 C 
ATOM      2  C   LIG d   1      -0.916  60.644 119.687  0.00  0.00     0.016 C 
ATOM      3  C   LIG d   1      -1.791  60.058 118.743  0.00  0.00     0.038 C 
ATOM      4  C   LIG d   1      -1.319  59.468 117.562  0.00  0.00     0.028 C 
ATOM      5  C   LIG d   1      -0.010  60.072 117.063  0.00  0.00    -0.047 C 
ATOM      6  C   LIG d   1       1.011  60.083 118.224  0.00  0.00     0.091 C 
ENDROOT
BRANCH   1   7
ATOM      7  O   LIG d   1       1.200  60.447 120.639  0.00  0.00    -0.368 OA
BRANCH   7   8
ATOM      8  C   LIG d   1       2.003  59.246 120.533  0.00  0.00     0.119 C 
BRANCH   8   9
ATOM      9  C   LIG d   1       1.236  58.112 121.238  0.00  0.00     0.028 C 
ATOM     10  C   LIG d   1       1.428  56.753 120.544  0.00  0.00     0.006 C 
ENDBRANCH   8   9
BRANCH   8  11
ATOM     11  C   LIG d   1       3.319  59.386 121.304  0.00  0.00     0.028 C 
ATOM     12  C   LIG d   1       4.105  60.649 120.918  0.00  0.00     0.006 C 
ENDBRANCH   8  11
ENDBRANCH   7   8
ENDBRANCH   1   7
BRANCH   6  13
ATOM     13  N   LIG d   1       2.292  60.735 117.845  0.00  0.00    -0.311 N 
ATOM     14  C   LIG d   1       3.423  60.064 117.636  0.00  0.00     0.210 C 
ATOM     15  C   LIG d   1       4.632  60.932 117.274  0.00  0.00     0.109 C 
ATOM     16  O   LIG d   1       3.531  58.829 117.683  0.00  0.00    -0.276 OA
ATOM     17  H   LIG d   1       2.286  61.733 117.754  0.00  0.00     0.149 HD
ENDBRANCH   6  13
BRANCH   5  18
ATOM     18  N   LIG d   1       0.437  59.275 115.906  0.00  0.00     0.381 N 
ATOM     19  H   LIG d   1       0.979  59.846 115.290  0.00  0.00    -0.090 HD
ATOM     20  H   LIG d   1      -0.370  58.948 115.405  0.00  0.00    -0.090 HD
ATOM     21  H   LIG d   1       0.981  58.499 116.216  0.00  0.00    -0.090 HD
ENDBRANCH   5  18
BRANCH   3  22
ATOM     22  C   LIG d   1      -3.160  60.094 118.960  0.00  0.00     0.382 C 
ATOM     23  O   LIG d   1      -3.739  59.109 119.479  0.00  0.00    -0.241 OA
ATOM     24  O   LIG d   1      -3.830  61.082 118.603  0.00  0.00    -0.241 OA
ENDBRANCH   3  22
TORSDOF 7
ENDMDL
