MODEL 1
REMARK VINA RESULT:      -5.6      0.000      0.000
REMARK  7 active torsions:
REMARK  status: ('A' for Active; 'I' for Inactive)
REMARK    1  A    between atoms: C_2  and  C_3 
REMARK    2  A    between atoms: C_3  and  O_6 
REMARK    3  A    between atoms: C_3  and  C_4 
REMARK    4  A    between atoms: C_7  and  O_6 
REMARK    5  A    between atoms: C_9  and  C_10 
REMARK    6  A    between atoms: N_15  and  C_14 
REMARK    7  A    between atoms: N_20  and  C_19 
REMARK       I    between atoms: C_22  and  N_20 
ROOT
ATOM      1  C   LIG d   1      -2.791  77.165 116.621  0.00  0.00     0.161 C 
ATOM      2  C   LIG d   1      -2.950  78.256 115.750  0.00  0.00     0.016 C 
ATOM      3  C   LIG d   1      -1.997  78.615 114.770  0.00  0.00     0.038 C 
ATOM      4  C   LIG d   1      -0.881  77.812 114.491  0.00  0.00     0.028 C 
ATOM      5  C   LIG d   1      -0.421  76.980 115.683  0.00  0.00    -0.047 C 
ATOM      6  C   LIG d   1      -1.633  76.212 116.257  0.00  0.00     0.091 C 
ENDROOT
BRANCH   1   7
ATOM      7  O   LIG d   1      -4.029  76.435 116.721  0.00  0.00    -0.368 OA
BRANCH   7   8
ATOM      8  C   LIG d   1      -4.967  76.618 115.632  0.00  0.00     0.119 C 
BRANCH   8   9
ATOM      9  C   LIG d   1      -6.383  76.640 116.240  0.00  0.00     0.028 C 
ATOM     10  C   LIG d   1      -6.571  77.784 117.250  0.00  0.00     0.006 C 
ENDBRANCH   8   9
BRANCH   8  11
ATOM     11  C   LIG d   1      -4.954  75.421 114.677  0.00  0.00     0.028 C 
ATOM     12  C   LIG d   1      -5.725  74.211 115.228  0.00  0.00     0.006 C 
ENDBRANCH   8  11
ENDBRANCH   7   8
ENDBRANCH   1   7
BRANCH   6  13
ATOM     13  N   LIG d   1      -1.288  75.438 117.478  0.00  0.00    -0.311 N 
ATOM     14  C   LIG d   1      -1.290  74.107 117.528  0.00  0.00     0.210 C 
ATOM     15  C   LIG d   1      -0.922  73.510 118.890  0.00  0.00     0.109 C 
ATOM     16  O   LIG d   1      -1.531  73.364 116.564  0.00  0.00    -0.276 OA
ATOM     17  H   LIG d   1      -1.049  75.961 118.298  0.00  0.00     0.149 HD
ENDBRANCH   6  13
BRANCH   5  18
ATOM     18  N   LIG d   1       0.658  76.090 115.215  0.00  0.00     0.381 N 
ATOM     19  H   LIG d   1       1.471  76.215 115.784  0.00  0.00    -0.090 HD
ATOM     20  H   LIG d   1       0.895  76.335 114.270  0.00  0.00    -0.090 HD
ATOM     21  H   LIG d   1       0.359  75.140 115.255  0.00  0.00    -0.090 HD
ENDBRANCH   5  18
BRANCH   3  22
ATOM     22  C   LIG d   1      -2.134  79.812 114.083  0.00  0.00     0.382 C 
ATOM     23  O   LIG d   1      -1.119  80.490 113.795  0.00  0.00    -0.241 OA
ATOM     24  O   LIG d   1      -3.265  80.245 113.788  0.00  0.00    -0.241 OA
ENDBRANCH   3  22
TORSDOF 7
ENDMDL
MODEL 2
REMARK VINA RESULT:      -5.4     13.428     15.925
REMARK  7 active torsions:
REMARK  status: ('A' for Active; 'I' for Inactive)
REMARK    1  A    between atoms: C_2  and  C_3 
REMARK    2  A    between atoms: C_3  and  O_6 
REMARK    3  A    between atoms: C_3  and  C_4 
REMARK    4  A    between atoms: C_7  and  O_6 
REMARK    5  A    between atoms: C_9  and  C_10 
REMARK    6  A    between atoms: N_15  and  C_14 
REMARK    7  A    between atoms: N_20  and  C_19 
REMARK       I    between atoms: C_22  and  N_20 
ROOT
ATOM      1  C   LIG d   1      -4.158  92.078 117.157  0.00  0.00     0.161 C 
ATOM      2  C   LIG d   1      -3.410  90.891 117.234  0.00  0.00     0.016 C 
ATOM      3  C   LIG d   1      -3.183  90.192 118.441  0.00  0.00     0.038 C 
ATOM      4  C   LIG d   1      -3.819  90.552 119.638  0.00  0.00     0.028 C 
ATOM      5  C   LIG d   1      -4.177  92.033 119.712  0.00  0.00    -0.047 C 
ATOM      6  C   LIG d   1      -4.953  92.426 118.434  0.00  0.00     0.091 C 
ENDROOT
BRANCH   1   7
ATOM      7  O   LIG d   1      -5.039  92.027 116.017  0.00  0.00    -0.368 OA
BRANCH   7   8
ATOM      8  C   LIG d   1      -6.405  91.624 116.284  0.00  0.00     0.119 C 
BRANCH   8   9
ATOM      9  C   LIG d   1      -6.517  90.123 115.953  0.00  0.00     0.028 C 
ATOM     10  C   LIG d   1      -7.803  89.493 116.514  0.00  0.00     0.006 C 
ENDBRANCH   8   9
BRANCH   8  11
ATOM     11  C   LIG d   1      -7.387  92.322 115.340  0.00  0.00     0.028 C 
ATOM     12  C   LIG d   1      -7.167  91.945 113.866  0.00  0.00     0.006 C 
ENDBRANCH   8  11
ENDBRANCH   7   8
ENDBRANCH   1   7
BRANCH   6  13
ATOM     13  N   LIG d   1      -5.268  93.877 118.385  0.00  0.00    -0.311 N 
ATOM     14  C   LIG d   1      -6.440  94.385 118.764  0.00  0.00     0.210 C 
ATOM     15  C   LIG d   1      -6.564  95.905 118.615  0.00  0.00     0.109 C 
ATOM     16  O   LIG d   1      -7.377  93.726 119.239  0.00  0.00    -0.276 OA
ATOM     17  H   LIG d   1      -4.554  94.488 118.042  0.00  0.00     0.149 HD
ENDBRANCH   6  13
BRANCH   5  18
ATOM     18  N   LIG d   1      -4.956  92.242 120.947  0.00  0.00     0.381 N 
ATOM     19  H   LIG d   1      -4.580  93.017 121.457  0.00  0.00    -0.090 HD
ATOM     20  H   LIG d   1      -4.881  91.421 121.522  0.00  0.00    -0.090 HD
ATOM     21  H   LIG d   1      -5.911  92.414 120.724  0.00  0.00    -0.090 HD
ENDBRANCH   5  18
BRANCH   3  22
ATOM     22  C   LIG d   1      -2.278  89.141 118.467  0.00  0.00     0.382 C 
ATOM     23  O   LIG d   1      -1.257  89.175 117.739  0.00  0.00    -0.241 OA
ATOM     24  O   LIG d   1      -2.493  88.140 119.176  0.00  0.00    -0.241 OA
ENDBRANCH   3  22
TORSDOF 7
ENDMDL
MODEL 3
REMARK VINA RESULT:      -5.4      2.926      5.947
REMARK  7 active torsions:
REMARK  status: ('A' for Active; 'I' for Inactive)
REMARK    1  A    between atoms: C_2  and  C_3 
REMARK    2  A    between atoms: C_3  and  O_6 
REMARK    3  A    between atoms: C_3  and  C_4 
REMARK    4  A    between atoms: C_7  and  O_6 
REMARK    5  A    between atoms: C_9  and  C_10 
REMARK    6  A    between atoms: N_15  and  C_14 
REMARK    7  A    between atoms: N_20  and  C_19 
REMARK       I    between atoms: C_22  and  N_20 
ROOT
ATOM      1  C   LIG d   1      -5.748  77.224 116.664  0.00  0.00     0.161 C 
ATOM      2  C   LIG d   1      -7.056  76.883 117.046  0.00  0.00     0.016 C 
ATOM      3  C   LIG d   1      -7.831  77.655 117.941  0.00  0.00     0.038 C 
ATOM      4  C   LIG d   1      -7.404  78.910 118.400  0.00  0.00     0.028 C 
ATOM      5  C   LIG d   1      -5.887  79.055 118.441  0.00  0.00    -0.047 C 
ATOM      6  C   LIG d   1      -5.307  78.647 117.067  0.00  0.00     0.091 C 
ENDROOT
BRANCH   1   7
ATOM      7  O   LIG d   1      -5.588  77.034 115.244  0.00  0.00    -0.368 OA
BRANCH   7   8
ATOM      8  C   LIG d   1      -4.639  76.017 114.840  0.00  0.00     0.119 C 
BRANCH   8   9
ATOM      9  C   LIG d   1      -5.443  74.838 114.259  0.00  0.00     0.028 C 
ATOM     10  C   LIG d   1      -5.829  73.806 115.332  0.00  0.00     0.006 C 
ENDBRANCH   8   9
BRANCH   8  11
ATOM     11  C   LIG d   1      -3.890  75.443 116.046  0.00  0.00     0.028 C 
ATOM     12  C   LIG d   1      -2.377  75.323 115.806  0.00  0.00     0.006 C 
ENDBRANCH   8  11
ENDBRANCH   7   8
ENDBRANCH   1   7
BRANCH   6  13
ATOM     13  N   LIG d   1      -3.821  78.680 117.047  0.00  0.00    -0.311 N 
ATOM     14  C   LIG d   1      -3.113  79.214 116.053  0.00  0.00     0.210 C 
ATOM     15  C   LIG d   1      -1.593  79.125 116.221  0.00  0.00     0.109 C 
ATOM     16  O   LIG d   1      -3.600  79.781 115.063  0.00  0.00    -0.276 OA
ATOM     17  H   LIG d   1      -3.345  78.269 117.826  0.00  0.00     0.149 HD
ENDBRANCH   6  13
BRANCH   5  18
ATOM     18  N   LIG d   1      -5.583  80.452 118.805  0.00  0.00     0.381 N 
ATOM     19  H   LIG d   1      -6.352  80.846 119.309  0.00  0.00    -0.090 HD
ATOM     20  H   LIG d   1      -5.451  80.986 117.963  0.00  0.00    -0.090 HD
ATOM     21  H   LIG d   1      -4.758  80.487 119.362  0.00  0.00    -0.090 HD
ENDBRANCH   5  18
BRANCH   3  22
ATOM     22  C   LIG d   1      -9.033  77.153 118.418  0.00  0.00     0.382 C 
ATOM     23  O   LIG d   1      -9.044  76.113 119.119  0.00  0.00    -0.241 OA
ATOM     24  O   LIG d   1     -10.110  77.703 118.119  0.00  0.00    -0.241 OA
ENDBRANCH   3  22
TORSDOF 7
ENDMDL
MODEL 4
REMARK VINA RESULT:      -5.4      4.273      6.345
REMARK  7 active torsions:
REMARK  status: ('A' for Active; 'I' for Inactive)
REMARK    1  A    between atoms: C_2  and  C_3 
REMARK    2  A    between atoms: C_3  and  O_6 
REMARK    3  A    between atoms: C_3  and  C_4 
REMARK    4  A    between atoms: C_7  and  O_6 
REMARK    5  A    between atoms: C_9  and  C_10 
REMARK    6  A    between atoms: N_15  and  C_14 
REMARK    7  A    between atoms: N_20  and  C_19 
REMARK       I    between atoms: C_22  and  N_20 
ROOT
ATOM      1  C   LIG d   1      -6.002  77.053 117.621  0.00  0.00     0.161 C 
ATOM      2  C   LIG d   1      -5.244  76.820 116.462  0.00  0.00     0.016 C 
ATOM      3  C   LIG d   1      -5.757  76.172 115.314  0.00  0.00     0.038 C 
ATOM      4  C   LIG d   1      -7.116  75.846 115.192  0.00  0.00     0.028 C 
ATOM      5  C   LIG d   1      -7.804  75.606 116.532  0.00  0.00    -0.047 C 
ATOM      6  C   LIG d   1      -7.517  76.804 117.465  0.00  0.00     0.091 C 
ENDROOT
BRANCH   1   7
ATOM      7  O   LIG d   1      -5.761  78.390 118.102  0.00  0.00    -0.368 OA
BRANCH   7   8
ATOM      8  C   LIG d   1      -5.798  79.442 117.106  0.00  0.00     0.119 C 
BRANCH   8   9
ATOM      9  C   LIG d   1      -4.352  79.928 116.892  0.00  0.00     0.028 C 
ATOM     10  C   LIG d   1      -3.462  79.684 118.123  0.00  0.00     0.006 C 
ENDBRANCH   8   9
BRANCH   8  11
ATOM     11  C   LIG d   1      -6.566  80.665 117.615  0.00  0.00     0.028 C 
ATOM     12  C   LIG d   1      -8.064  80.386 117.818  0.00  0.00     0.006 C 
ENDBRANCH   8  11
ENDBRANCH   7   8
ENDBRANCH   1   7
BRANCH   6  13
ATOM     13  N   LIG d   1      -8.083  76.611 118.826  0.00  0.00    -0.311 N 
ATOM     14  C   LIG d   1      -9.307  77.005 119.173  0.00  0.00     0.210 C 
ATOM     15  C   LIG d   1      -9.687  76.728 120.631  0.00  0.00     0.109 C 
ATOM     16  O   LIG d   1     -10.126  77.529 118.403  0.00  0.00    -0.276 OA
ATOM     17  H   LIG d   1      -7.498  76.166 119.505  0.00  0.00     0.149 HD
ENDBRANCH   6  13
BRANCH   5  18
ATOM     18  N   LIG d   1      -9.242  75.412 116.266  0.00  0.00     0.381 N 
ATOM     19  H   LIG d   1      -9.773  76.103 116.756  0.00  0.00    -0.090 HD
ATOM     20  H   LIG d   1      -9.516  74.506 116.604  0.00  0.00    -0.090 HD
ATOM     21  H   LIG d   1      -9.420  75.477 115.288  0.00  0.00    -0.090 HD
ENDBRANCH   5  18
BRANCH   3  22
ATOM     22  C   LIG d   1      -4.898  75.808 114.289  0.00  0.00     0.382 C 
ATOM     23  O   LIG d   1      -4.180  76.675 113.734  0.00  0.00    -0.241 OA
ATOM     24  O   LIG d   1      -4.863  74.631 113.882  0.00  0.00    -0.241 OA
ENDBRANCH   3  22
TORSDOF 7
ENDMDL
MODEL 5
REMARK VINA RESULT:      -5.3     14.211     16.389
REMARK  7 active torsions:
REMARK  status: ('A' for Active; 'I' for Inactive)
REMARK    1  A    between atoms: C_2  and  C_3 
REMARK    2  A    between atoms: C_3  and  O_6 
REMARK    3  A    between atoms: C_3  and  C_4 
REMARK    4  A    between atoms: C_7  and  O_6 
REMARK    5  A    between atoms: C_9  and  C_10 
REMARK    6  A    between atoms: N_15  and  C_14 
REMARK    7  A    between atoms: N_20  and  C_19 
REMARK       I    between atoms: C_22  and  N_20 
ROOT
ATOM      1  C   LIG d   1      -5.763  92.269 117.417  0.00  0.00     0.161 C 
ATOM      2  C   LIG d   1      -6.727  93.284 117.534  0.00  0.00     0.016 C 
ATOM      3  C   LIG d   1      -6.599  94.380 118.417  0.00  0.00     0.038 C 
ATOM      4  C   LIG d   1      -5.420  94.617 119.140  0.00  0.00     0.028 C 
ATOM      5  C   LIG d   1      -4.625  93.349 119.434  0.00  0.00    -0.047 C 
ATOM      6  C   LIG d   1      -4.420  92.569 118.115  0.00  0.00     0.091 C 
ENDROOT
BRANCH   1   7
ATOM      7  O   LIG d   1      -5.546  91.959 116.026  0.00  0.00    -0.368 OA
BRANCH   7   8
ATOM      8  C   LIG d   1      -5.860  90.605 115.618  0.00  0.00     0.119 C 
BRANCH   8   9
ATOM      9  C   LIG d   1      -6.794  90.694 114.396  0.00  0.00     0.028 C 
ATOM     10  C   LIG d   1      -7.066  92.146 113.970  0.00  0.00     0.006 C 
ENDBRANCH   8   9
BRANCH   8  11
ATOM     11  C   LIG d   1      -6.669  89.872 116.694  0.00  0.00     0.028 C 
ATOM     12  C   LIG d   1      -8.104  89.555 116.246  0.00  0.00     0.006 C 
ENDBRANCH   8  11
ENDBRANCH   7   8
ENDBRANCH   1   7
BRANCH   6  13
ATOM     13  N   LIG d   1      -3.723  91.273 118.326  0.00  0.00    -0.311 N 
ATOM     14  C   LIG d   1      -2.409  91.114 118.177  0.00  0.00     0.210 C 
ATOM     15  C   LIG d   1      -1.898  89.691 118.424  0.00  0.00     0.109 C 
ATOM     16  O   LIG d   1      -1.614  92.023 117.896  0.00  0.00    -0.276 OA
ATOM     17  H   LIG d   1      -4.288  90.489 118.587  0.00  0.00     0.149 HD
ENDBRANCH   6  13
BRANCH   5  18
ATOM     18  N   LIG d   1      -3.357  93.756 120.068  0.00  0.00     0.381 N 
ATOM     19  H   LIG d   1      -3.356  93.482 121.030  0.00  0.00    -0.090 HD
ATOM     20  H   LIG d   1      -3.278  94.757 120.025  0.00  0.00    -0.090 HD
ATOM     21  H   LIG d   1      -2.588  93.334 119.595  0.00  0.00    -0.090 HD
ENDBRANCH   5  18
BRANCH   3  22
ATOM     22  C   LIG d   1      -7.675  95.232 118.615  0.00  0.00     0.382 C 
ATOM     23  O   LIG d   1      -7.548  96.244 119.347  0.00  0.00    -0.241 OA
ATOM     24  O   LIG d   1      -8.784  94.979 118.107  0.00  0.00    -0.241 OA
ENDBRANCH   3  22
TORSDOF 7
ENDMDL
MODEL 6
REMARK VINA RESULT:      -5.2     14.596     16.999
REMARK  7 active torsions:
REMARK  status: ('A' for Active; 'I' for Inactive)
REMARK    1  A    between atoms: C_2  and  C_3 
REMARK    2  A    between atoms: C_3  and  O_6 
REMARK    3  A    between atoms: C_3  and  C_4 
REMARK    4  A    between atoms: C_7  and  O_6 
REMARK    5  A    between atoms: C_9  and  C_10 
REMARK    6  A    between atoms: N_15  and  C_14 
REMARK    7  A    between atoms: N_20  and  C_19 
REMARK       I    between atoms: C_22  and  N_20 
ROOT
ATOM      1  C   LIG d   1      -5.803  92.939 117.481  0.00  0.00     0.161 C 
ATOM      2  C   LIG d   1      -6.626  91.939 116.938  0.00  0.00     0.016 C 
ATOM      3  C   LIG d   1      -6.146  90.674 116.527  0.00  0.00     0.038 C 
ATOM      4  C   LIG d   1      -4.826  90.267 116.773  0.00  0.00     0.028 C 
ATOM      5  C   LIG d   1      -3.840  91.426 116.859  0.00  0.00    -0.047 C 
ATOM      6  C   LIG d   1      -4.382  92.473 117.859  0.00  0.00     0.091 C 
ENDROOT
BRANCH   1   7
ATOM      7  O   LIG d   1      -6.452  93.542 118.618  0.00  0.00    -0.368 OA
BRANCH   7   8
ATOM      8  C   LIG d   1      -6.781  94.948 118.493  0.00  0.00     0.119 C 
BRANCH   8   9
ATOM      9  C   LIG d   1      -6.045  95.697 119.621  0.00  0.00     0.028 C 
ATOM     10  C   LIG d   1      -5.348  96.974 119.119  0.00  0.00     0.006 C 
ENDBRANCH   8   9
BRANCH   8  11
ATOM     11  C   LIG d   1      -8.271  95.196 118.746  0.00  0.00     0.028 C 
ATOM     12  C   LIG d   1      -8.622  95.234 120.242  0.00  0.00     0.006 C 
ENDBRANCH   8  11
ENDBRANCH   7   8
ENDBRANCH   1   7
BRANCH   6  13
ATOM     13  N   LIG d   1      -3.518  93.680 117.940  0.00  0.00    -0.311 N 
ATOM     14  C   LIG d   1      -2.594  93.858 118.882  0.00  0.00     0.210 C 
ATOM     15  C   LIG d   1      -1.828  95.182 118.795  0.00  0.00     0.109 C 
ATOM     16  O   LIG d   1      -2.313  93.031 119.763  0.00  0.00    -0.276 OA
ATOM     17  H   LIG d   1      -3.658  94.388 117.246  0.00  0.00     0.149 HD
ENDBRANCH   6  13
BRANCH   5  18
ATOM     18  N   LIG d   1      -2.532  90.871 117.255  0.00  0.00     0.381 N 
ATOM     19  H   LIG d   1      -2.409  90.966 118.243  0.00  0.00    -0.090 HD
ATOM     20  H   LIG d   1      -1.805  91.390 116.795  0.00  0.00    -0.090 HD
ATOM     21  H   LIG d   1      -2.478  89.910 116.997  0.00  0.00    -0.090 HD
ENDBRANCH   5  18
BRANCH   3  22
ATOM     22  C   LIG d   1      -6.980  89.817 115.825  0.00  0.00     0.382 C 
ATOM     23  O   LIG d   1      -7.922  89.236 116.417  0.00  0.00    -0.241 OA
ATOM     24  O   LIG d   1      -6.776  89.583 114.619  0.00  0.00    -0.241 OA
ENDBRANCH   3  22
TORSDOF 7
ENDMDL
MODEL 7
REMARK VINA RESULT:      -5.2     14.113     16.137
REMARK  7 active torsions:
REMARK  status: ('A' for Active; 'I' for Inactive)
REMARK    1  A    between atoms: C_2  and  C_3 
REMARK    2  A    between atoms: C_3  and  O_6 
REMARK    3  A    between atoms: C_3  and  C_4 
REMARK    4  A    between atoms: C_7  and  O_6 
REMARK    5  A    between atoms: C_9  and  C_10 
REMARK    6  A    between atoms: N_15  and  C_14 
REMARK    7  A    between atoms: N_20  and  C_19 
REMARK       I    between atoms: C_22  and  N_20 
ROOT
ATOM      1  C   LIG d   1      -5.910  92.555 117.540  0.00  0.00     0.161 C 
ATOM      2  C   LIG d   1      -6.855  92.550 116.501  0.00  0.00     0.016 C 
ATOM      3  C   LIG d   1      -6.852  91.604 115.451  0.00  0.00     0.038 C 
ATOM      4  C   LIG d   1      -5.988  90.499 115.451  0.00  0.00     0.028 C 
ATOM      5  C   LIG d   1      -4.689  90.746 116.211  0.00  0.00    -0.047 C 
ATOM      6  C   LIG d   1      -5.027  91.291 117.618  0.00  0.00     0.091 C 
ENDROOT
BRANCH   1   7
ATOM      7  O   LIG d   1      -6.571  92.782 118.801  0.00  0.00    -0.368 OA
BRANCH   7   8
ATOM      8  C   LIG d   1      -6.118  93.929 119.561  0.00  0.00     0.119 C 
BRANCH   8   9
ATOM      9  C   LIG d   1      -6.249  93.576 121.055  0.00  0.00     0.028 C 
ATOM     10  C   LIG d   1      -6.264  92.058 121.300  0.00  0.00     0.006 C 
ENDBRANCH   8   9
BRANCH   8  11
ATOM     11  C   LIG d   1      -7.036  95.136 119.348  0.00  0.00     0.028 C 
ATOM     12  C   LIG d   1      -6.277  96.385 118.872  0.00  0.00     0.006 C 
ENDBRANCH   8  11
ENDBRANCH   7   8
ENDBRANCH   1   7
BRANCH   6  13
ATOM     13  N   LIG d   1      -3.812  91.639 118.398  0.00  0.00    -0.311 N 
ATOM     14  C   LIG d   1      -3.190  90.783 119.208  0.00  0.00     0.210 C 
ATOM     15  C   LIG d   1      -1.967  91.351 119.933  0.00  0.00     0.109 C 
ATOM     16  O   LIG d   1      -3.518  89.597 119.369  0.00  0.00    -0.276 OA
ATOM     17  H   LIG d   1      -3.459  92.571 118.303  0.00  0.00     0.149 HD
ENDBRANCH   6  13
BRANCH   5  18
ATOM     18  N   LIG d   1      -3.946  89.472 116.249  0.00  0.00     0.381 N 
ATOM     19  H   LIG d   1      -3.022  89.630 116.598  0.00  0.00    -0.090 HD
ATOM     20  H   LIG d   1      -3.872  89.111 115.314  0.00  0.00    -0.090 HD
ATOM     21  H   LIG d   1      -4.421  88.817 116.829  0.00  0.00    -0.090 HD
ENDBRANCH   5  18
BRANCH   3  22
ATOM     22  C   LIG d   1      -7.695  91.781 114.364  0.00  0.00     0.382 C 
ATOM     23  O   LIG d   1      -8.884  92.138 114.544  0.00  0.00    -0.241 OA
ATOM     24  O   LIG d   1      -7.294  91.545 113.208  0.00  0.00    -0.241 OA
ENDBRANCH   3  22
TORSDOF 7
ENDMDL
MODEL 8
REMARK VINA RESULT:      -5.2      3.725      6.696
REMARK  7 active torsions:
REMARK  status: ('A' for Active; 'I' for Inactive)
REMARK    1  A    between atoms: C_2  and  C_3 
REMARK    2  A    between atoms: C_3  and  O_6 
REMARK    3  A    between atoms: C_3  and  C_4 
REMARK    4  A    between atoms: C_7  and  O_6 
REMARK    5  A    between atoms: C_9  and  C_10 
REMARK    6  A    between atoms: N_15  and  C_14 
REMARK    7  A    between atoms: N_20  and  C_19 
REMARK       I    between atoms: C_22  and  N_20 
ROOT
ATOM      1  C   LIG d   1      -5.522  77.736 116.774  0.00  0.00     0.161 C 
ATOM      2  C   LIG d   1      -5.218  76.616 115.982  0.00  0.00     0.016 C 
ATOM      3  C   LIG d   1      -6.129  75.561 115.743  0.00  0.00     0.038 C 
ATOM      4  C   LIG d   1      -7.467  75.629 116.160  0.00  0.00     0.028 C 
ATOM      5  C   LIG d   1      -7.674  76.505 117.391  0.00  0.00    -0.047 C 
ATOM      6  C   LIG d   1      -7.013  77.880 117.145  0.00  0.00     0.091 C 
ENDROOT
BRANCH   1   7
ATOM      7  O   LIG d   1      -5.048  78.934 116.127  0.00  0.00    -0.368 OA
BRANCH   7   8
ATOM      8  C   LIG d   1      -3.837  79.515 116.670  0.00  0.00     0.119 C 
BRANCH   8   9
ATOM      9  C   LIG d   1      -2.657  79.001 115.823  0.00  0.00     0.028 C 
ATOM     10  C   LIG d   1      -2.592  79.671 114.440  0.00  0.00     0.006 C 
ENDBRANCH   8   9
BRANCH   8  11
ATOM     11  C   LIG d   1      -3.566  79.011 118.091  0.00  0.00     0.028 C 
ATOM     12  C   LIG d   1      -3.772  80.098 119.158  0.00  0.00     0.006 C 
ENDBRANCH   8  11
ENDBRANCH   7   8
ENDBRANCH   1   7
BRANCH   6  13
ATOM     13  N   LIG d   1      -7.096  78.770 118.332  0.00  0.00    -0.311 N 
ATOM     14  C   LIG d   1      -7.452  80.052 118.264  0.00  0.00     0.210 C 
ATOM     15  C   LIG d   1      -7.454  80.794 119.604  0.00  0.00     0.109 C 
ATOM     16  O   LIG d   1      -7.797  80.636 117.226  0.00  0.00    -0.276 OA
ATOM     17  H   LIG d   1      -6.863  78.370 119.220  0.00  0.00     0.149 HD
ENDBRANCH   6  13
BRANCH   5  18
ATOM     18  N   LIG d   1      -9.127  76.597 117.633  0.00  0.00     0.381 N 
ATOM     19  H   LIG d   1      -9.306  76.609 118.617  0.00  0.00    -0.090 HD
ATOM     20  H   LIG d   1      -9.573  75.787 117.241  0.00  0.00    -0.090 HD
ATOM     21  H   LIG d   1      -9.491  77.423 117.211  0.00  0.00    -0.090 HD
ENDBRANCH   5  18
BRANCH   3  22
ATOM     22  C   LIG d   1      -5.693  74.405 115.115  0.00  0.00     0.382 C 
ATOM     23  O   LIG d   1      -6.079  73.284 115.526  0.00  0.00    -0.241 OA
ATOM     24  O   LIG d   1      -4.883  74.467 114.170  0.00  0.00    -0.241 OA
ENDBRANCH   3  22
TORSDOF 7
ENDMDL
MODEL 9
REMARK VINA RESULT:      -5.2     13.290     15.785
REMARK  7 active torsions:
REMARK  status: ('A' for Active; 'I' for Inactive)
REMARK    1  A    between atoms: C_2  and  C_3 
REMARK    2  A    between atoms: C_3  and  O_6 
REMARK    3  A    between atoms: C_3  and  C_4 
REMARK    4  A    between atoms: C_7  and  O_6 
REMARK    5  A    between atoms: C_9  and  C_10 
REMARK    6  A    between atoms: N_15  and  C_14 
REMARK    7  A    between atoms: N_20  and  C_19 
REMARK       I    between atoms: C_22  and  N_20 
ROOT
ATOM      1  C   LIG d   1      -3.951  91.102 117.669  0.00  0.00     0.161 C 
ATOM      2  C   LIG d   1      -4.791  90.426 116.769  0.00  0.00     0.016 C 
ATOM      3  C   LIG d   1      -6.012  90.959 116.295  0.00  0.00     0.038 C 
ATOM      4  C   LIG d   1      -6.404  92.277 116.575  0.00  0.00     0.028 C 
ATOM      5  C   LIG d   1      -5.836  92.813 117.884  0.00  0.00    -0.047 C 
ATOM      6  C   LIG d   1      -4.307  92.585 117.898  0.00  0.00     0.091 C 
ENDROOT
BRANCH   1   7
ATOM      7  O   LIG d   1      -2.579  90.975 117.245  0.00  0.00    -0.368 OA
BRANCH   7   8
ATOM      8  C   LIG d   1      -1.693  90.275 118.153  0.00  0.00     0.119 C 
BRANCH   8   9
ATOM      9  C   LIG d   1      -0.259  90.429 117.611  0.00  0.00     0.028 C 
ATOM     10  C   LIG d   1       0.333  91.819 117.905  0.00  0.00     0.006 C 
ENDBRANCH   8   9
BRANCH   8  11
ATOM     11  C   LIG d   1      -1.968  88.768 118.148  0.00  0.00     0.028 C 
ATOM     12  C   LIG d   1      -2.158  88.192 119.560  0.00  0.00     0.006 C 
ENDBRANCH   8  11
ENDBRANCH   7   8
ENDBRANCH   1   7
BRANCH   6  13
ATOM     13  N   LIG d   1      -3.683  93.005 119.180  0.00  0.00    -0.311 N 
ATOM     14  C   LIG d   1      -2.643  93.833 119.253  0.00  0.00     0.210 C 
ATOM     15  C   LIG d   1      -2.142  94.120 120.672  0.00  0.00     0.109 C 
ATOM     16  O   LIG d   1      -2.107  94.383 118.278  0.00  0.00    -0.276 OA
ATOM     17  H   LIG d   1      -4.075  92.631 120.022  0.00  0.00     0.149 HD
ENDBRANCH   6  13
BRANCH   5  18
ATOM     18  N   LIG d   1      -6.210  94.236 117.982  0.00  0.00     0.381 N 
ATOM     19  H   LIG d   1      -5.409  94.810 117.808  0.00  0.00    -0.090 HD
ATOM     20  H   LIG d   1      -6.535  94.424 118.915  0.00  0.00    -0.090 HD
ATOM     21  H   LIG d   1      -6.927  94.447 117.324  0.00  0.00    -0.090 HD
ENDBRANCH   5  18
BRANCH   3  22
ATOM     22  C   LIG d   1      -6.875  90.156 115.565  0.00  0.00     0.382 C 
ATOM     23  O   LIG d   1      -6.877  90.216 114.311  0.00  0.00    -0.241 OA
ATOM     24  O   LIG d   1      -7.682  89.405 116.144  0.00  0.00    -0.241 OA
ENDBRANCH   3  22
TORSDOF 7
ENDMDL
