MODEL 1
REMARK VINA RESULT:      -5.6      0.000      0.000
REMARK  7 active torsions:
REMARK  status: ('A' for Active; 'I' for Inactive)
REMARK    1  A    between atoms: C_2  and  C_3 
REMARK    2  A    between atoms: C_3  and  O_6 
REMARK    3  A    between atoms: C_3  and  C_4 
REMARK    4  A    between atoms: C_7  and  O_6 
REMARK    5  A    between atoms: C_9  and  C_10 
REMARK    6  A    between atoms: N_15  and  C_14 
REMARK    7  A    between atoms: N_20  and  C_19 
REMARK       I    between atoms: C_22  and  N_20 
ROOT
ATOM      1  C   LIG d   1      -5.883  92.351 118.241  0.00  0.00     0.161 C 
ATOM      2  C   LIG d   1      -5.818  91.513 117.116  0.00  0.00     0.016 C 
ATOM      3  C   LIG d   1      -6.769  91.541 116.069  0.00  0.00     0.038 C 
ATOM      4  C   LIG d   1      -7.771  92.520 116.004  0.00  0.00     0.028 C 
ATOM      5  C   LIG d   1      -8.176  93.065 117.369  0.00  0.00    -0.047 C 
ATOM      6  C   LIG d   1      -6.905  93.502 118.133  0.00  0.00     0.091 C 
ENDROOT
BRANCH   1   7
ATOM      7  O   LIG d   1      -4.572  92.873 118.537  0.00  0.00    -0.368 OA
BRANCH   7   8
ATOM      8  C   LIG d   1      -3.455  92.163 117.946  0.00  0.00     0.119 C 
BRANCH   8   9
ATOM      9  C   LIG d   1      -2.866  91.241 119.031  0.00  0.00     0.028 C 
ATOM     10  C   LIG d   1      -3.117  89.753 118.736  0.00  0.00     0.006 C 
ENDBRANCH   8   9
BRANCH   8  11
ATOM     11  C   LIG d   1      -2.322  93.123 117.570  0.00  0.00     0.028 C 
ATOM     12  C   LIG d   1      -0.952  92.660 118.090  0.00  0.00     0.006 C 
ENDBRANCH   8  11
ENDBRANCH   7   8
ENDBRANCH   1   7
BRANCH   6  13
ATOM     13  N   LIG d   1      -7.205  93.969 119.512  0.00  0.00    -0.311 N 
ATOM     14  C   LIG d   1      -7.433  95.244 119.821  0.00  0.00     0.210 C 
ATOM     15  C   LIG d   1      -7.702  95.512 121.305  0.00  0.00     0.109 C 
ATOM     16  O   LIG d   1      -7.469  96.174 119.002  0.00  0.00    -0.276 OA
ATOM     17  H   LIG d   1      -7.226  93.275 120.234  0.00  0.00     0.149 HD
ENDBRANCH   6  13
BRANCH   5  18
ATOM     18  N   LIG d   1      -9.125  94.171 117.144  0.00  0.00     0.381 N 
ATOM     19  H   LIG d   1      -9.513  94.103 116.224  0.00  0.00    -0.090 HD
ATOM     20  H   LIG d   1      -8.630  95.043 117.214  0.00  0.00    -0.090 HD
ATOM     21  H   LIG d   1      -9.854  94.139 117.823  0.00  0.00    -0.090 HD
ENDBRANCH   5  18
BRANCH   3  22
ATOM     22  C   LIG d   1      -6.746  90.556 115.094  0.00  0.00     0.382 C 
ATOM     23  O   LIG d   1      -5.728  89.835 114.955  0.00  0.00    -0.241 OA
ATOM     24  O   LIG d   1      -7.712  90.408 114.322  0.00  0.00    -0.241 OA
ENDBRANCH   3  22
TORSDOF 7
ENDMDL
MODEL 2
REMARK VINA RESULT:      -5.1     13.541     16.411
REMARK  7 active torsions:
REMARK  status: ('A' for Active; 'I' for Inactive)
REMARK    1  A    between atoms: C_2  and  C_3 
REMARK    2  A    between atoms: C_3  and  O_6 
REMARK    3  A    between atoms: C_3  and  C_4 
REMARK    4  A    between atoms: C_7  and  O_6 
REMARK    5  A    between atoms: C_9  and  C_10 
REMARK    6  A    between atoms: N_15  and  C_14 
REMARK    7  A    between atoms: N_20  and  C_19 
REMARK       I    between atoms: C_22  and  N_20 
ROOT
ATOM      1  C   LIG d   1      -4.374  77.232 117.181  0.00  0.00     0.161 C 
ATOM      2  C   LIG d   1      -5.091  78.436 117.283  0.00  0.00     0.016 C 
ATOM      3  C   LIG d   1      -4.552  79.694 116.929  0.00  0.00     0.038 C 
ATOM      4  C   LIG d   1      -3.302  79.817 116.304  0.00  0.00     0.028 C 
ATOM      5  C   LIG d   1      -2.341  78.684 116.645  0.00  0.00    -0.047 C 
ATOM      6  C   LIG d   1      -3.049  77.332 116.397  0.00  0.00     0.091 C 
ENDROOT
BRANCH   1   7
ATOM      7  O   LIG d   1      -5.215  76.208 116.614  0.00  0.00    -0.368 OA
BRANCH   7   8
ATOM      8  C   LIG d   1      -5.143  76.049 115.176  0.00  0.00     0.119 C 
BRANCH   8   9
ATOM      9  C   LIG d   1      -6.466  76.575 114.585  0.00  0.00     0.028 C 
ATOM     10  C   LIG d   1      -6.405  76.729 113.056  0.00  0.00     0.006 C 
ENDBRANCH   8   9
BRANCH   8  11
ATOM     11  C   LIG d   1      -5.083  74.570 114.782  0.00  0.00     0.028 C 
ATOM     12  C   LIG d   1      -6.008  73.688 115.635  0.00  0.00     0.006 C 
ENDBRANCH   8  11
ENDBRANCH   7   8
ENDBRANCH   1   7
BRANCH   6  13
ATOM     13  N   LIG d   1      -2.207  76.171 116.786  0.00  0.00    -0.311 N 
ATOM     14  C   LIG d   1      -1.633  75.354 115.905  0.00  0.00     0.210 C 
ATOM     15  C   LIG d   1      -0.823  74.207 116.519  0.00  0.00     0.109 C 
ATOM     16  O   LIG d   1      -1.691  75.488 114.673  0.00  0.00    -0.276 OA
ATOM     17  H   LIG d   1      -2.081  76.007 117.766  0.00  0.00     0.149 HD
ENDBRANCH   6  13
BRANCH   5  18
ATOM     18  N   LIG d   1      -1.131  78.862 115.821  0.00  0.00     0.381 N 
ATOM     19  H   LIG d   1      -0.335  78.493 116.302  0.00  0.00    -0.090 HD
ATOM     20  H   LIG d   1      -0.981  79.845 115.672  0.00  0.00    -0.090 HD
ATOM     21  H   LIG d   1      -1.243  78.400 114.945  0.00  0.00    -0.090 HD
ENDBRANCH   5  18
BRANCH   3  22
ATOM     22  C   LIG d   1      -5.250  80.852 117.238  0.00  0.00     0.382 C 
ATOM     23  O   LIG d   1      -4.759  81.687 118.035  0.00  0.00    -0.241 OA
ATOM     24  O   LIG d   1      -6.385  81.051 116.764  0.00  0.00    -0.241 OA
ENDBRANCH   3  22
TORSDOF 7
ENDMDL
MODEL 3
REMARK VINA RESULT:      -5.0     13.255     15.874
REMARK  7 active torsions:
REMARK  status: ('A' for Active; 'I' for Inactive)
REMARK    1  A    between atoms: C_2  and  C_3 
REMARK    2  A    between atoms: C_3  and  O_6 
REMARK    3  A    between atoms: C_3  and  C_4 
REMARK    4  A    between atoms: C_7  and  O_6 
REMARK    5  A    between atoms: C_9  and  C_10 
REMARK    6  A    between atoms: N_15  and  C_14 
REMARK    7  A    between atoms: N_20  and  C_19 
REMARK       I    between atoms: C_22  and  N_20 
ROOT
ATOM      1  C   LIG d   1      -2.930  78.271 114.560  0.00  0.00     0.161 C 
ATOM      2  C   LIG d   1      -3.915  77.289 114.756  0.00  0.00     0.016 C 
ATOM      3  C   LIG d   1      -3.620  75.954 115.117  0.00  0.00     0.038 C 
ATOM      4  C   LIG d   1      -2.322  75.546 115.456  0.00  0.00     0.028 C 
ATOM      5  C   LIG d   1      -1.232  76.375 114.784  0.00  0.00    -0.047 C 
ATOM      6  C   LIG d   1      -1.516  77.874 115.034  0.00  0.00     0.091 C 
ENDROOT
BRANCH   1   7
ATOM      7  O   LIG d   1      -3.340  79.504 115.184  0.00  0.00    -0.368 OA
BRANCH   7   8
ATOM      8  C   LIG d   1      -3.687  79.423 116.589  0.00  0.00     0.119 C 
BRANCH   8   9
ATOM      9  C   LIG d   1      -5.063  80.094 116.765  0.00  0.00     0.028 C 
ATOM     10  C   LIG d   1      -6.186  79.073 117.014  0.00  0.00     0.006 C 
ENDBRANCH   8   9
BRANCH   8  11
ATOM     11  C   LIG d   1      -2.722  80.244 117.450  0.00  0.00     0.028 C 
ATOM     12  C   LIG d   1      -3.433  81.335 118.266  0.00  0.00     0.006 C 
ENDBRANCH   8  11
ENDBRANCH   7   8
ENDBRANCH   1   7
BRANCH   6  13
ATOM     13  N   LIG d   1      -0.545  78.758 114.339  0.00  0.00    -0.311 N 
ATOM     14  C   LIG d   1       0.327  79.536 114.980  0.00  0.00     0.210 C 
ATOM     15  C   LIG d   1       1.225  80.384 114.074  0.00  0.00     0.109 C 
ATOM     16  O   LIG d   1       0.464  79.579 116.212  0.00  0.00    -0.276 OA
ATOM     17  H   LIG d   1      -0.565  78.762 113.338  0.00  0.00     0.149 HD
ENDBRANCH   6  13
BRANCH   5  18
ATOM     18  N   LIG d   1       0.065  75.934 115.331  0.00  0.00     0.381 N 
ATOM     19  H   LIG d   1      -0.032  75.027 115.742  0.00  0.00    -0.090 HD
ATOM     20  H   LIG d   1       0.351  76.577 116.048  0.00  0.00    -0.090 HD
ATOM     21  H   LIG d   1       0.749  75.907 114.607  0.00  0.00    -0.090 HD
ENDBRANCH   5  18
BRANCH   3  22
ATOM     22  C   LIG d   1      -4.627  75.000 115.103  0.00  0.00     0.382 C 
ATOM     23  O   LIG d   1      -5.408  74.898 116.080  0.00  0.00    -0.241 OA
ATOM     24  O   LIG d   1      -4.736  74.211 114.145  0.00  0.00    -0.241 OA
ENDBRANCH   3  22
TORSDOF 7
ENDMDL
MODEL 4
REMARK VINA RESULT:      -5.0     13.071     15.417
REMARK  7 active torsions:
REMARK  status: ('A' for Active; 'I' for Inactive)
REMARK    1  A    between atoms: C_2  and  C_3 
REMARK    2  A    between atoms: C_3  and  O_6 
REMARK    3  A    between atoms: C_3  and  C_4 
REMARK    4  A    between atoms: C_7  and  O_6 
REMARK    5  A    between atoms: C_9  and  C_10 
REMARK    6  A    between atoms: N_15  and  C_14 
REMARK    7  A    between atoms: N_20  and  C_19 
REMARK       I    between atoms: C_22  and  N_20 
ROOT
ATOM      1  C   LIG d   1      -3.075  78.926 115.867  0.00  0.00     0.161 C 
ATOM      2  C   LIG d   1      -2.145  79.974 115.972  0.00  0.00     0.016 C 
ATOM      3  C   LIG d   1      -0.971  80.053 115.189  0.00  0.00     0.038 C 
ATOM      4  C   LIG d   1      -0.721  79.162 114.135  0.00  0.00     0.028 C 
ATOM      5  C   LIG d   1      -1.378  77.799 114.325  0.00  0.00    -0.047 C 
ATOM      6  C   LIG d   1      -2.876  78.005 114.646  0.00  0.00     0.091 C 
ENDROOT
BRANCH   1   7
ATOM      7  O   LIG d   1      -4.415  79.459 115.880  0.00  0.00    -0.368 OA
BRANCH   7   8
ATOM      8  C   LIG d   1      -5.076  79.489 117.169  0.00  0.00     0.119 C 
BRANCH   8   9
ATOM      9  C   LIG d   1      -5.900  78.192 117.296  0.00  0.00     0.028 C 
ATOM     10  C   LIG d   1      -5.233  77.162 118.223  0.00  0.00     0.006 C 
ENDBRANCH   8   9
BRANCH   8  11
ATOM     11  C   LIG d   1      -6.098  80.627 117.245  0.00  0.00     0.028 C 
ATOM     12  C   LIG d   1      -7.471  80.163 117.756  0.00  0.00     0.006 C 
ENDBRANCH   8  11
ENDBRANCH   7   8
ENDBRANCH   1   7
BRANCH   6  13
ATOM     13  N   LIG d   1      -3.576  76.725 114.929  0.00  0.00    -0.311 N 
ATOM     14  C   LIG d   1      -4.586  76.263 114.194  0.00  0.00     0.210 C 
ATOM     15  C   LIG d   1      -5.179  74.933 114.672  0.00  0.00     0.109 C 
ATOM     16  O   LIG d   1      -5.026  76.812 113.173  0.00  0.00    -0.276 OA
ATOM     17  H   LIG d   1      -3.263  76.199 115.722  0.00  0.00     0.149 HD
ENDBRANCH   6  13
BRANCH   5  18
ATOM     18  N   LIG d   1      -1.153  77.020 113.093  0.00  0.00     0.381 N 
ATOM     19  H   LIG d   1      -1.894  76.360 112.969  0.00  0.00    -0.090 HD
ATOM     20  H   LIG d   1      -0.290  76.512 113.183  0.00  0.00    -0.090 HD
ATOM     21  H   LIG d   1      -1.106  77.630 112.307  0.00  0.00    -0.090 HD
ENDBRANCH   5  18
BRANCH   3  22
ATOM     22  C   LIG d   1      -0.011  81.009 115.485  0.00  0.00     0.382 C 
ATOM     23  O   LIG d   1       0.840  81.331 114.621  0.00  0.00    -0.241 OA
ATOM     24  O   LIG d   1       0.043  81.521 116.619  0.00  0.00    -0.241 OA
ENDBRANCH   3  22
TORSDOF 7
ENDMDL
MODEL 5
REMARK VINA RESULT:      -4.9     28.584     30.541
REMARK  7 active torsions:
REMARK  status: ('A' for Active; 'I' for Inactive)
REMARK    1  A    between atoms: C_2  and  C_3 
REMARK    2  A    between atoms: C_3  and  O_6 
REMARK    3  A    between atoms: C_3  and  C_4 
REMARK    4  A    between atoms: C_7  and  O_6 
REMARK    5  A    between atoms: C_9  and  C_10 
REMARK    6  A    between atoms: N_15  and  C_14 
REMARK    7  A    between atoms: N_20  and  C_19 
REMARK       I    between atoms: C_22  and  N_20 
ROOT
ATOM      1  C   LIG d   1     -16.051  63.768 116.894  0.00  0.00     0.161 C 
ATOM      2  C   LIG d   1     -16.277  62.442 116.489  0.00  0.00     0.016 C 
ATOM      3  C   LIG d   1     -16.935  62.096 115.287  0.00  0.00     0.038 C 
ATOM      4  C   LIG d   1     -17.280  63.060 114.327  0.00  0.00     0.028 C 
ATOM      5  C   LIG d   1     -17.526  64.443 114.919  0.00  0.00    -0.047 C 
ATOM      6  C   LIG d   1     -16.321  64.830 115.808  0.00  0.00     0.091 C 
ENDROOT
BRANCH   1   7
ATOM      7  O   LIG d   1     -14.709  63.902 117.403  0.00  0.00    -0.368 OA
BRANCH   7   8
ATOM      8  C   LIG d   1     -14.589  64.379 118.765  0.00  0.00     0.119 C 
BRANCH   8   9
ATOM      9  C   LIG d   1     -13.569  63.474 119.484  0.00  0.00     0.028 C 
ATOM     10  C   LIG d   1     -14.234  62.538 120.507  0.00  0.00     0.006 C 
ENDBRANCH   8   9
BRANCH   8  11
ATOM     11  C   LIG d   1     -15.901  64.203 119.535  0.00  0.00     0.028 C 
ATOM     12  C   LIG d   1     -16.436  65.524 120.110  0.00  0.00     0.006 C 
ENDBRANCH   8  11
ENDBRANCH   7   8
ENDBRANCH   1   7
BRANCH   6  13
ATOM     13  N   LIG d   1     -16.518  66.134 116.493  0.00  0.00    -0.311 N 
ATOM     14  C   LIG d   1     -15.575  67.072 116.569  0.00  0.00     0.210 C 
ATOM     15  C   LIG d   1     -15.979  68.333 117.338  0.00  0.00     0.109 C 
ATOM     16  O   LIG d   1     -14.454  66.991 116.046  0.00  0.00    -0.276 OA
ATOM     17  H   LIG d   1     -17.410  66.296 116.919  0.00  0.00     0.149 HD
ENDBRANCH   6  13
BRANCH   5  18
ATOM     18  N   LIG d   1     -17.740  65.377 113.797  0.00  0.00     0.381 N 
ATOM     19  H   LIG d   1     -17.162  65.115 113.024  0.00  0.00    -0.090 HD
ATOM     20  H   LIG d   1     -17.477  66.301 114.089  0.00  0.00    -0.090 HD
ATOM     21  H   LIG d   1     -18.698  65.367 113.524  0.00  0.00    -0.090 HD
ENDBRANCH   5  18
BRANCH   3  22
ATOM     22  C   LIG d   1     -17.290  60.776 115.052  0.00  0.00     0.382 C 
ATOM     23  O   LIG d   1     -18.444  60.377 115.343  0.00  0.00    -0.241 OA
ATOM     24  O   LIG d   1     -16.459  59.970 114.595  0.00  0.00    -0.241 OA
ENDBRANCH   3  22
TORSDOF 7
ENDMDL
MODEL 6
REMARK VINA RESULT:      -4.7     12.670     15.291
REMARK  7 active torsions:
REMARK  status: ('A' for Active; 'I' for Inactive)
REMARK    1  A    between atoms: C_2  and  C_3 
REMARK    2  A    between atoms: C_3  and  O_6 
REMARK    3  A    between atoms: C_3  and  C_4 
REMARK    4  A    between atoms: C_7  and  O_6 
REMARK    5  A    between atoms: C_9  and  C_10 
REMARK    6  A    between atoms: N_15  and  C_14 
REMARK    7  A    between atoms: N_20  and  C_19 
REMARK       I    between atoms: C_22  and  N_20 
ROOT
ATOM      1  C   LIG d   1      -4.897  78.020 116.828  0.00  0.00     0.161 C 
ATOM      2  C   LIG d   1      -6.172  78.598 116.942  0.00  0.00     0.016 C 
ATOM      3  C   LIG d   1      -6.387  79.935 117.349  0.00  0.00     0.038 C 
ATOM      4  C   LIG d   1      -5.326  80.836 117.524  0.00  0.00     0.028 C 
ATOM      5  C   LIG d   1      -4.015  80.160 117.910  0.00  0.00    -0.047 C 
ATOM      6  C   LIG d   1      -3.724  79.020 116.907  0.00  0.00     0.091 C 
ENDROOT
BRANCH   1   7
ATOM      7  O   LIG d   1      -4.817  77.250 115.612  0.00  0.00    -0.368 OA
BRANCH   7   8
ATOM      8  C   LIG d   1      -4.631  75.822 115.773  0.00  0.00     0.119 C 
BRANCH   8   9
ATOM      9  C   LIG d   1      -3.375  75.426 114.972  0.00  0.00     0.028 C 
ATOM     10  C   LIG d   1      -2.250  74.888 115.873  0.00  0.00     0.006 C 
ENDBRANCH   8   9
BRANCH   8  11
ATOM     11  C   LIG d   1      -5.781  75.035 115.139  0.00  0.00     0.028 C 
ATOM     12  C   LIG d   1      -5.908  73.610 115.699  0.00  0.00     0.006 C 
ENDBRANCH   8  11
ENDBRANCH   7   8
ENDBRANCH   1   7
BRANCH   6  13
ATOM     13  N   LIG d   1      -2.502  78.252 117.261  0.00  0.00    -0.311 N 
ATOM     14  C   LIG d   1      -1.297  78.521 116.761  0.00  0.00     0.210 C 
ATOM     15  C   LIG d   1      -0.176  77.595 117.242  0.00  0.00     0.109 C 
ATOM     16  O   LIG d   1      -1.045  79.459 115.989  0.00  0.00    -0.276 OA
ATOM     17  H   LIG d   1      -2.610  77.494 117.905  0.00  0.00     0.149 HD
ENDBRANCH   6  13
BRANCH   5  18
ATOM     18  N   LIG d   1      -2.966  81.198 117.925  0.00  0.00     0.381 N 
ATOM     19  H   LIG d   1      -2.438  81.133 118.772  0.00  0.00    -0.090 HD
ATOM     20  H   LIG d   1      -3.403  82.102 117.894  0.00  0.00    -0.090 HD
ATOM     21  H   LIG d   1      -2.364  81.085 117.139  0.00  0.00    -0.090 HD
ENDBRANCH   5  18
BRANCH   3  22
ATOM     22  C   LIG d   1      -7.674  80.371 117.623  0.00  0.00     0.382 C 
ATOM     23  O   LIG d   1      -8.489  79.604 118.190  0.00  0.00    -0.241 OA
ATOM     24  O   LIG d   1      -8.045  81.507 117.270  0.00  0.00    -0.241 OA
ENDBRANCH   3  22
TORSDOF 7
ENDMDL
MODEL 7
REMARK VINA RESULT:      -4.6     13.369     16.067
REMARK  7 active torsions:
REMARK  status: ('A' for Active; 'I' for Inactive)
REMARK    1  A    between atoms: C_2  and  C_3 
REMARK    2  A    between atoms: C_3  and  O_6 
REMARK    3  A    between atoms: C_3  and  C_4 
REMARK    4  A    between atoms: C_7  and  O_6 
REMARK    5  A    between atoms: C_9  and  C_10 
REMARK    6  A    between atoms: N_15  and  C_14 
REMARK    7  A    between atoms: N_20  and  C_19 
REMARK       I    between atoms: C_22  and  N_20 
ROOT
ATOM      1  C   LIG d   1      -2.388  78.466 115.471  0.00  0.00     0.161 C 
ATOM      2  C   LIG d   1      -3.559  77.730 115.226  0.00  0.00     0.016 C 
ATOM      3  C   LIG d   1      -3.568  76.335 114.997  0.00  0.00     0.038 C 
ATOM      4  C   LIG d   1      -2.414  75.551 115.146  0.00  0.00     0.028 C 
ATOM      5  C   LIG d   1      -1.122  76.322 114.895  0.00  0.00    -0.047 C 
ATOM      6  C   LIG d   1      -1.133  77.611 115.748  0.00  0.00     0.091 C 
ENDROOT
BRANCH   1   7
ATOM      7  O   LIG d   1      -2.610  79.394 116.550  0.00  0.00    -0.368 OA
BRANCH   7   8
ATOM      8  C   LIG d   1      -3.936  79.386 117.135  0.00  0.00     0.119 C 
BRANCH   8   9
ATOM      9  C   LIG d   1      -4.510  80.809 117.000  0.00  0.00     0.028 C 
ATOM     10  C   LIG d   1      -6.023  80.860 117.272  0.00  0.00     0.006 C 
ENDBRANCH   8   9
BRANCH   8  11
ATOM     11  C   LIG d   1      -3.879  79.113 118.641  0.00  0.00     0.028 C 
ATOM     12  C   LIG d   1      -2.657  78.275 119.049  0.00  0.00     0.006 C 
ENDBRANCH   8  11
ENDBRANCH   7   8
ENDBRANCH   1   7
BRANCH   6  13
ATOM     13  N   LIG d   1       0.057  78.466 115.499  0.00  0.00    -0.311 N 
ATOM     14  C   LIG d   1       1.149  78.442 116.261  0.00  0.00     0.210 C 
ATOM     15  C   LIG d   1       2.252  79.418 115.840  0.00  0.00     0.109 C 
ATOM     16  O   LIG d   1       1.321  77.683 117.226  0.00  0.00    -0.276 OA
ATOM     17  H   LIG d   1       0.015  79.090 114.717  0.00  0.00     0.149 HD
ENDBRANCH   6  13
BRANCH   5  18
ATOM     18  N   LIG d   1       0.002  75.424 115.220  0.00  0.00     0.381 N 
ATOM     19  H   LIG d   1       0.618  75.873 115.868  0.00  0.00    -0.090 HD
ATOM     20  H   LIG d   1       0.517  75.230 114.378  0.00  0.00    -0.090 HD
ATOM     21  H   LIG d   1      -0.341  74.575 115.611  0.00  0.00    -0.090 HD
ENDBRANCH   5  18
BRANCH   3  22
ATOM     22  C   LIG d   1      -4.734  75.715 114.573  0.00  0.00     0.382 C 
ATOM     23  O   LIG d   1      -5.833  76.313 114.671  0.00  0.00    -0.241 OA
ATOM     24  O   LIG d   1      -4.707  74.549 114.136  0.00  0.00    -0.241 OA
ENDBRANCH   3  22
TORSDOF 7
ENDMDL
MODEL 8
REMARK VINA RESULT:      -4.5      8.962     11.123
REMARK  7 active torsions:
REMARK  status: ('A' for Active; 'I' for Inactive)
REMARK    1  A    between atoms: C_2  and  C_3 
REMARK    2  A    between atoms: C_3  and  O_6 
REMARK    3  A    between atoms: C_3  and  C_4 
REMARK    4  A    between atoms: C_7  and  O_6 
REMARK    5  A    between atoms: C_9  and  C_10 
REMARK    6  A    between atoms: N_15  and  C_14 
REMARK    7  A    between atoms: N_20  and  C_19 
REMARK       I    between atoms: C_22  and  N_20 
ROOT
ATOM      1  C   LIG d   1       3.613  89.063 114.838  0.00  0.00     0.161 C 
ATOM      2  C   LIG d   1       2.615  88.324 114.181  0.00  0.00     0.016 C 
ATOM      3  C   LIG d   1       2.386  86.948 114.413  0.00  0.00     0.038 C 
ATOM      4  C   LIG d   1       3.044  86.248 115.436  0.00  0.00     0.028 C 
ATOM      5  C   LIG d   1       4.412  86.826 115.781  0.00  0.00    -0.047 C 
ATOM      6  C   LIG d   1       4.267  88.343 116.037  0.00  0.00     0.091 C 
ENDROOT
BRANCH   1   7
ATOM      7  O   LIG d   1       3.085  90.340 115.248  0.00  0.00    -0.368 OA
BRANCH   7   8
ATOM      8  C   LIG d   1       2.495  90.392 116.570  0.00  0.00     0.119 C 
BRANCH   8   9
ATOM      9  C   LIG d   1       0.972  90.224 116.404  0.00  0.00     0.028 C 
ATOM     10  C   LIG d   1       0.445  88.949 117.082  0.00  0.00     0.006 C 
ENDBRANCH   8   9
BRANCH   8  11
ATOM     11  C   LIG d   1       2.684  91.770 117.211  0.00  0.00     0.028 C 
ATOM     12  C   LIG d   1       4.162  92.122 117.441  0.00  0.00     0.006 C 
ENDBRANCH   8  11
ENDBRANCH   7   8
ENDBRANCH   1   7
BRANCH   6  13
ATOM     13  N   LIG d   1       5.573  89.002 116.299  0.00  0.00    -0.311 N 
ATOM     14  C   LIG d   1       6.074  89.177 117.520  0.00  0.00     0.210 C 
ATOM     15  C   LIG d   1       7.425  89.897 117.568  0.00  0.00     0.109 C 
ATOM     16  O   LIG d   1       5.543  88.774 118.566  0.00  0.00    -0.276 OA
ATOM     17  H   LIG d   1       6.085  89.331 115.504  0.00  0.00     0.149 HD
ENDBRANCH   6  13
BRANCH   5  18
ATOM     18  N   LIG d   1       4.925  86.089 116.951  0.00  0.00     0.381 N 
ATOM     19  H   LIG d   1       4.194  85.534 117.348  0.00  0.00    -0.090 HD
ATOM     20  H   LIG d   1       5.232  86.750 117.643  0.00  0.00    -0.090 HD
ATOM     21  H   LIG d   1       5.685  85.505 116.679  0.00  0.00    -0.090 HD
ENDBRANCH   5  18
BRANCH   3  22
ATOM     22  C   LIG d   1       1.517  86.248 113.590  0.00  0.00     0.382 C 
ATOM     23  O   LIG d   1       0.534  86.833 113.073  0.00  0.00    -0.241 OA
ATOM     24  O   LIG d   1       1.678  85.028 113.393  0.00  0.00    -0.241 OA
ENDBRANCH   3  22
TORSDOF 7
ENDMDL
MODEL 9
REMARK VINA RESULT:      -4.5     12.527     14.868
REMARK  7 active torsions:
REMARK  status: ('A' for Active; 'I' for Inactive)
REMARK    1  A    between atoms: C_2  and  C_3 
REMARK    2  A    between atoms: C_3  and  O_6 
REMARK    3  A    between atoms: C_3  and  C_4 
REMARK    4  A    between atoms: C_7  and  O_6 
REMARK    5  A    between atoms: C_9  and  C_10 
REMARK    6  A    between atoms: N_15  and  C_14 
REMARK    7  A    between atoms: N_20  and  C_19 
REMARK       I    between atoms: C_22  and  N_20 
ROOT
ATOM      1  C   LIG d   1      -5.719  78.533 117.154  0.00  0.00     0.161 C 
ATOM      2  C   LIG d   1      -6.002  77.738 116.031  0.00  0.00     0.016 C 
ATOM      3  C   LIG d   1      -5.094  76.795 115.497  0.00  0.00     0.038 C 
ATOM      4  C   LIG d   1      -3.892  76.474 116.145  0.00  0.00     0.028 C 
ATOM      5  C   LIG d   1      -3.341  77.611 116.998  0.00  0.00    -0.047 C 
ATOM      6  C   LIG d   1      -4.458  78.118 117.940  0.00  0.00     0.091 C 
ENDROOT
BRANCH   1   7
ATOM      7  O   LIG d   1      -6.865  78.570 118.028  0.00  0.00    -0.368 OA
BRANCH   7   8
ATOM      8  C   LIG d   1      -7.718  79.735 117.913  0.00  0.00     0.119 C 
BRANCH   8   9
ATOM      9  C   LIG d   1      -6.838  80.909 117.442  0.00  0.00     0.028 C 
ATOM     10  C   LIG d   1      -7.255  82.246 118.076  0.00  0.00     0.006 C 
ENDBRANCH   8   9
BRANCH   8  11
ATOM     11  C   LIG d   1      -8.267  80.161 119.278  0.00  0.00     0.028 C 
ATOM     12  C   LIG d   1      -7.713  79.314 120.434  0.00  0.00     0.006 C 
ENDBRANCH   8  11
ENDBRANCH   7   8
ENDBRANCH   1   7
BRANCH   6  13
ATOM     13  N   LIG d   1      -4.028  79.287 118.751  0.00  0.00    -0.311 N 
ATOM     14  C   LIG d   1      -4.007  79.287 120.083  0.00  0.00     0.210 C 
ATOM     15  C   LIG d   1      -3.549  80.602 120.722  0.00  0.00     0.109 C 
ATOM     16  O   LIG d   1      -4.292  78.312 120.794  0.00  0.00    -0.276 OA
ATOM     17  H   LIG d   1      -3.750  80.110 118.253  0.00  0.00     0.149 HD
ENDBRANCH   6  13
BRANCH   5  18
ATOM     18  N   LIG d   1      -2.164  77.096 117.723  0.00  0.00     0.381 N 
ATOM     19  H   LIG d   1      -1.337  77.261 117.185  0.00  0.00    -0.090 HD
ATOM     20  H   LIG d   1      -2.267  76.104 117.846  0.00  0.00    -0.090 HD
ATOM     21  H   LIG d   1      -2.088  77.542 118.610  0.00  0.00    -0.090 HD
ENDBRANCH   5  18
BRANCH   3  22
ATOM     22  C   LIG d   1      -5.368  76.191 114.279  0.00  0.00     0.382 C 
ATOM     23  O   LIG d   1      -4.756  75.148 113.945  0.00  0.00    -0.241 OA
ATOM     24  O   LIG d   1      -6.188  76.700 113.492  0.00  0.00    -0.241 OA
ENDBRANCH   3  22
TORSDOF 7
ENDMDL
