MODEL 1
REMARK VINA RESULT:      -5.4      0.000      0.000
REMARK  7 active torsions:
REMARK  status: ('A' for Active; 'I' for Inactive)
REMARK    1  A    between atoms: C_2  and  C_3 
REMARK    2  A    between atoms: C_3  and  O_6 
REMARK    3  A    between atoms: C_3  and  C_4 
REMARK    4  A    between atoms: C_7  and  O_6 
REMARK    5  A    between atoms: C_9  and  C_10 
REMARK    6  A    between atoms: N_15  and  C_14 
REMARK    7  A    between atoms: N_20  and  C_19 
REMARK       I    between atoms: C_22  and  N_20 
ROOT
ATOM      1  C   LIG d   1      -4.556  91.923 118.556  0.00  0.00     0.161 C 
ATOM      2  C   LIG d   1      -5.864  92.434 118.599  0.00  0.00     0.016 C 
ATOM      3  C   LIG d   1      -6.852  92.126 117.635  0.00  0.00     0.038 C 
ATOM      4  C   LIG d   1      -6.641  91.160 116.640  0.00  0.00     0.028 C 
ATOM      5  C   LIG d   1      -5.174  90.995 116.257  0.00  0.00    -0.047 C 
ATOM      6  C   LIG d   1      -4.341  90.781 117.541  0.00  0.00     0.091 C 
ENDROOT
BRANCH   1   7
ATOM      7  O   LIG d   1      -4.152  91.505 119.875  0.00  0.00    -0.368 OA
BRANCH   7   8
ATOM      8  C   LIG d   1      -3.147  92.323 120.523  0.00  0.00     0.119 C 
BRANCH   8   9
ATOM      9  C   LIG d   1      -2.651  93.353 119.490  0.00  0.00     0.028 C 
ATOM     10  C   LIG d   1      -1.131  93.281 119.273  0.00  0.00     0.006 C 
ENDBRANCH   8   9
BRANCH   8  11
ATOM     11  C   LIG d   1      -1.912  91.497 120.897  0.00  0.00     0.028 C 
ATOM     12  C   LIG d   1      -2.244  90.022 121.176  0.00  0.00     0.006 C 
ENDBRANCH   8  11
ENDBRANCH   7   8
ENDBRANCH   1   7
BRANCH   6  13
ATOM     13  N   LIG d   1      -2.883  90.695 117.264  0.00  0.00    -0.311 N 
ATOM     14  C   LIG d   1      -2.147  89.619 117.538  0.00  0.00     0.210 C 
ATOM     15  C   LIG d   1      -0.661  89.748 117.191  0.00  0.00     0.109 C 
ATOM     16  O   LIG d   1      -2.590  88.560 118.006  0.00  0.00    -0.276 OA
ATOM     17  H   LIG d   1      -2.448  91.499 116.855  0.00  0.00     0.149 HD
ENDBRANCH   6  13
BRANCH   5  18
ATOM     18  N   LIG d   1      -5.084  89.865 115.314  0.00  0.00     0.381 N 
ATOM     19  H   LIG d   1      -4.622  89.093 115.753  0.00  0.00    -0.090 HD
ATOM     20  H   LIG d   1      -4.538  90.147 114.519  0.00  0.00    -0.090 HD
ATOM     21  H   LIG d   1      -5.996  89.592 115.020  0.00  0.00    -0.090 HD
ENDBRANCH   5  18
BRANCH   3  22
ATOM     22  C   LIG d   1      -8.053  92.818 117.637  0.00  0.00     0.382 C 
ATOM     23  O   LIG d   1      -8.517  93.265 118.714  0.00  0.00    -0.241 OA
ATOM     24  O   LIG d   1      -8.701  92.962 116.583  0.00  0.00    -0.241 OA
ENDBRANCH   3  22
TORSDOF 7
ENDMDL
MODEL 2
REMARK VINA RESULT:      -5.2     15.961     17.814
REMARK  7 active torsions:
REMARK  status: ('A' for Active; 'I' for Inactive)
REMARK    1  A    between atoms: C_2  and  C_3 
REMARK    2  A    between atoms: C_3  and  O_6 
REMARK    3  A    between atoms: C_3  and  C_4 
REMARK    4  A    between atoms: C_7  and  O_6 
REMARK    5  A    between atoms: C_9  and  C_10 
REMARK    6  A    between atoms: N_15  and  C_14 
REMARK    7  A    between atoms: N_20  and  C_19 
REMARK       I    between atoms: C_22  and  N_20 
ROOT
ATOM      1  C   LIG d   1      -5.390  73.426 116.430  0.00  0.00     0.161 C 
ATOM      2  C   LIG d   1      -5.143  74.307 115.364  0.00  0.00     0.016 C 
ATOM      3  C   LIG d   1      -6.020  75.355 115.001  0.00  0.00     0.038 C 
ATOM      4  C   LIG d   1      -7.139  75.689 115.779  0.00  0.00     0.028 C 
ATOM      5  C   LIG d   1      -7.699  74.512 116.570  0.00  0.00    -0.047 C 
ATOM      6  C   LIG d   1      -6.550  73.844 117.359  0.00  0.00     0.091 C 
ENDROOT
BRANCH   1   7
ATOM      7  O   LIG d   1      -4.183  73.231 117.192  0.00  0.00    -0.368 OA
BRANCH   7   8
ATOM      8  C   LIG d   1      -3.231  74.322 117.170  0.00  0.00     0.119 C 
BRANCH   8   9
ATOM      9  C   LIG d   1      -1.822  73.706 117.076  0.00  0.00     0.028 C 
ATOM     10  C   LIG d   1      -1.417  72.968 118.363  0.00  0.00     0.006 C 
ENDBRANCH   8   9
BRANCH   8  11
ATOM     11  C   LIG d   1      -3.245  75.102 118.488  0.00  0.00     0.028 C 
ATOM     12  C   LIG d   1      -4.024  76.423 118.391  0.00  0.00     0.006 C 
ENDBRANCH   8  11
ENDBRANCH   7   8
ENDBRANCH   1   7
BRANCH   6  13
ATOM     13  N   LIG d   1      -6.996  72.633 118.094  0.00  0.00    -0.311 N 
ATOM     14  C   LIG d   1      -7.386  71.511 117.491  0.00  0.00     0.210 C 
ATOM     15  C   LIG d   1      -7.826  70.388 118.436  0.00  0.00     0.109 C 
ATOM     16  O   LIG d   1      -7.378  71.328 116.264  0.00  0.00    -0.276 OA
ATOM     17  H   LIG d   1      -7.004  72.683 119.094  0.00  0.00     0.149 HD
ENDBRANCH   6  13
BRANCH   5  18
ATOM     18  N   LIG d   1      -8.772  75.031 117.440  0.00  0.00     0.381 N 
ATOM     19  H   LIG d   1      -9.618  74.524 117.272  0.00  0.00    -0.090 HD
ATOM     20  H   LIG d   1      -8.934  75.997 117.216  0.00  0.00    -0.090 HD
ATOM     21  H   LIG d   1      -8.508  74.943 118.396  0.00  0.00    -0.090 HD
ENDBRANCH   5  18
BRANCH   3  22
ATOM     22  C   LIG d   1      -5.803  76.056 113.824  0.00  0.00     0.382 C 
ATOM     23  O   LIG d   1      -4.639  76.393 113.501  0.00  0.00    -0.241 OA
ATOM     24  O   LIG d   1      -6.762  76.395 113.105  0.00  0.00    -0.241 OA
ENDBRANCH   3  22
TORSDOF 7
ENDMDL
MODEL 3
REMARK VINA RESULT:      -5.2     15.785     17.906
REMARK  7 active torsions:
REMARK  status: ('A' for Active; 'I' for Inactive)
REMARK    1  A    between atoms: C_2  and  C_3 
REMARK    2  A    between atoms: C_3  and  O_6 
REMARK    3  A    between atoms: C_3  and  C_4 
REMARK    4  A    between atoms: C_7  and  O_6 
REMARK    5  A    between atoms: C_9  and  C_10 
REMARK    6  A    between atoms: N_15  and  C_14 
REMARK    7  A    between atoms: N_20  and  C_19 
REMARK       I    between atoms: C_22  and  N_20 
ROOT
ATOM      1  C   LIG d   1      -3.595  74.293 117.244  0.00  0.00     0.161 C 
ATOM      2  C   LIG d   1      -4.033  75.149 116.220  0.00  0.00     0.016 C 
ATOM      3  C   LIG d   1      -3.156  75.821 115.339  0.00  0.00     0.038 C 
ATOM      4  C   LIG d   1      -1.777  75.563 115.326  0.00  0.00     0.028 C 
ATOM      5  C   LIG d   1      -1.236  75.091 116.672  0.00  0.00    -0.047 C 
ATOM      6  C   LIG d   1      -2.102  73.913 117.174  0.00  0.00     0.091 C 
ENDROOT
BRANCH   1   7
ATOM      7  O   LIG d   1      -4.414  73.107 117.273  0.00  0.00    -0.368 OA
BRANCH   7   8
ATOM      8  C   LIG d   1      -5.753  73.243 116.736  0.00  0.00     0.119 C 
BRANCH   8   9
ATOM      9  C   LIG d   1      -6.710  73.449 117.926  0.00  0.00     0.028 C 
ATOM     10  C   LIG d   1      -7.628  74.669 117.736  0.00  0.00     0.006 C 
ENDBRANCH   8   9
BRANCH   8  11
ATOM     11  C   LIG d   1      -6.217  71.949 116.062  0.00  0.00     0.028 C 
ATOM     12  C   LIG d   1      -7.014  71.037 117.008  0.00  0.00     0.006 C 
ENDBRANCH   8  11
ENDBRANCH   7   8
ENDBRANCH   1   7
BRANCH   6  13
ATOM     13  N   LIG d   1      -1.693  73.445 118.525  0.00  0.00    -0.311 N 
ATOM     14  C   LIG d   1      -0.786  72.490 118.726  0.00  0.00     0.210 C 
ATOM     15  C   LIG d   1      -0.527  72.146 120.196  0.00  0.00     0.109 C 
ATOM     16  O   LIG d   1      -0.149  71.919 117.829  0.00  0.00    -0.276 OA
ATOM     17  H   LIG d   1      -2.138  73.877 119.311  0.00  0.00     0.149 HD
ENDBRANCH   6  13
BRANCH   5  18
ATOM     18  N   LIG d   1       0.180  74.727 116.480  0.00  0.00     0.381 N 
ATOM     19  H   LIG d   1       0.727  75.554 116.343  0.00  0.00    -0.090 HD
ATOM     20  H   LIG d   1       0.261  74.156 115.657  0.00  0.00    -0.090 HD
ATOM     21  H   LIG d   1       0.514  74.227 117.274  0.00  0.00    -0.090 HD
ENDBRANCH   5  18
BRANCH   3  22
ATOM     22  C   LIG d   1      -3.652  76.794 114.484  0.00  0.00     0.382 C 
ATOM     23  O   LIG d   1      -3.376  78.002 114.682  0.00  0.00    -0.241 OA
ATOM     24  O   LIG d   1      -4.407  76.483 113.544  0.00  0.00    -0.241 OA
ENDBRANCH   3  22
TORSDOF 7
ENDMDL
MODEL 4
REMARK VINA RESULT:      -5.1     16.064     18.011
REMARK  7 active torsions:
REMARK  status: ('A' for Active; 'I' for Inactive)
REMARK    1  A    between atoms: C_2  and  C_3 
REMARK    2  A    between atoms: C_3  and  O_6 
REMARK    3  A    between atoms: C_3  and  C_4 
REMARK    4  A    between atoms: C_7  and  O_6 
REMARK    5  A    between atoms: C_9  and  C_10 
REMARK    6  A    between atoms: N_15  and  C_14 
REMARK    7  A    between atoms: N_20  and  C_19 
REMARK       I    between atoms: C_22  and  N_20 
ROOT
ATOM      1  C   LIG d   1      -6.692  74.707 117.582  0.00  0.00     0.161 C 
ATOM      2  C   LIG d   1      -6.670  73.314 117.765  0.00  0.00     0.016 C 
ATOM      3  C   LIG d   1      -7.802  72.487 117.580  0.00  0.00     0.038 C 
ATOM      4  C   LIG d   1      -9.002  72.981 117.049  0.00  0.00     0.028 C 
ATOM      5  C   LIG d   1      -9.223  74.464 117.327  0.00  0.00    -0.047 C 
ATOM      6  C   LIG d   1      -7.963  75.249 116.895  0.00  0.00     0.091 C 
ENDROOT
BRANCH   1   7
ATOM      7  O   LIG d   1      -5.516  75.123 116.859  0.00  0.00    -0.368 OA
BRANCH   7   8
ATOM      8  C   LIG d   1      -4.789  74.077 116.169  0.00  0.00     0.119 C 
BRANCH   8   9
ATOM      9  C   LIG d   1      -3.285  74.355 116.362  0.00  0.00     0.028 C 
ATOM     10  C   LIG d   1      -2.700  73.603 117.569  0.00  0.00     0.006 C 
ENDBRANCH   8   9
BRANCH   8  11
ATOM     11  C   LIG d   1      -5.023  74.141 114.657  0.00  0.00     0.028 C 
ATOM     12  C   LIG d   1      -5.505  75.522 114.186  0.00  0.00     0.006 C 
ENDBRANCH   8  11
ENDBRANCH   7   8
ENDBRANCH   1   7
BRANCH   6  13
ATOM     13  N   LIG d   1      -8.062  76.698 117.210  0.00  0.00    -0.311 N 
ATOM     14  C   LIG d   1      -8.254  77.168 118.441  0.00  0.00     0.210 C 
ATOM     15  C   LIG d   1      -8.346  78.694 118.543  0.00  0.00     0.109 C 
ATOM     16  O   LIG d   1      -8.324  76.469 119.463  0.00  0.00    -0.276 OA
ATOM     17  H   LIG d   1      -7.984  77.337 116.444  0.00  0.00     0.149 HD
ENDBRANCH   6  13
BRANCH   5  18
ATOM     18  N   LIG d   1     -10.439  74.877 116.602  0.00  0.00     0.381 N 
ATOM     19  H   LIG d   1     -10.325  74.704 115.623  0.00  0.00    -0.090 HD
ATOM     20  H   LIG d   1     -10.576  75.864 116.733  0.00  0.00    -0.090 HD
ATOM     21  H   LIG d   1     -11.228  74.376 116.945  0.00  0.00    -0.090 HD
ENDBRANCH   5  18
BRANCH   3  22
ATOM     22  C   LIG d   1      -7.751  71.156 117.966  0.00  0.00     0.382 C 
ATOM     23  O   LIG d   1      -8.327  70.281 117.276  0.00  0.00    -0.241 OA
ATOM     24  O   LIG d   1      -7.173  70.825 119.019  0.00  0.00    -0.241 OA
ENDBRANCH   3  22
TORSDOF 7
ENDMDL
MODEL 5
REMARK VINA RESULT:      -5.0     15.516     17.439
REMARK  7 active torsions:
REMARK  status: ('A' for Active; 'I' for Inactive)
REMARK    1  A    between atoms: C_2  and  C_3 
REMARK    2  A    between atoms: C_3  and  O_6 
REMARK    3  A    between atoms: C_3  and  C_4 
REMARK    4  A    between atoms: C_7  and  O_6 
REMARK    5  A    between atoms: C_9  and  C_10 
REMARK    6  A    between atoms: N_15  and  C_14 
REMARK    7  A    between atoms: N_20  and  C_19 
REMARK       I    between atoms: C_22  and  N_20 
ROOT
ATOM      1  C   LIG d   1      -7.888  75.000 117.340  0.00  0.00     0.161 C 
ATOM      2  C   LIG d   1      -7.906  73.606 117.167  0.00  0.00     0.016 C 
ATOM      3  C   LIG d   1      -6.737  72.818 117.070  0.00  0.00     0.038 C 
ATOM      4  C   LIG d   1      -5.460  73.356 117.293  0.00  0.00     0.028 C 
ATOM      5  C   LIG d   1      -5.364  74.843 116.970  0.00  0.00    -0.047 C 
ATOM      6  C   LIG d   1      -6.506  75.589 117.696  0.00  0.00     0.091 C 
ENDROOT
BRANCH   1   7
ATOM      7  O   LIG d   1      -8.865  75.383 118.327  0.00  0.00    -0.368 OA
BRANCH   7   8
ATOM      8  C   LIG d   1     -10.141  75.843 117.816  0.00  0.00     0.119 C 
BRANCH   8   9
ATOM      9  C   LIG d   1     -10.614  76.996 118.722  0.00  0.00     0.028 C 
ATOM     10  C   LIG d   1      -9.621  78.170 118.744  0.00  0.00     0.006 C 
ENDBRANCH   8   9
BRANCH   8  11
ATOM     11  C   LIG d   1     -11.216  74.760 117.944  0.00  0.00     0.028 C 
ATOM     12  C   LIG d   1     -12.311  75.124 118.959  0.00  0.00     0.006 C 
ENDBRANCH   8  11
ENDBRANCH   7   8
ENDBRANCH   1   7
BRANCH   6  13
ATOM     13  N   LIG d   1      -6.536  77.038 117.367  0.00  0.00    -0.311 N 
ATOM     14  C   LIG d   1      -5.925  77.969 118.098  0.00  0.00     0.210 C 
ATOM     15  C   LIG d   1      -6.099  79.404 117.593  0.00  0.00     0.109 C 
ATOM     16  O   LIG d   1      -5.228  77.738 119.098  0.00  0.00    -0.276 OA
ATOM     17  H   LIG d   1      -7.053  77.310 116.554  0.00  0.00     0.149 HD
ENDBRANCH   6  13
BRANCH   5  18
ATOM     18  N   LIG d   1      -4.023  75.302 117.377  0.00  0.00     0.381 N 
ATOM     19  H   LIG d   1      -3.903  75.165 118.361  0.00  0.00    -0.090 HD
ATOM     20  H   LIG d   1      -3.942  76.284 117.183  0.00  0.00    -0.090 HD
ATOM     21  H   LIG d   1      -3.324  74.798 116.877  0.00  0.00    -0.090 HD
ENDBRANCH   5  18
BRANCH   3  22
ATOM     22  C   LIG d   1      -6.835  71.484 116.707  0.00  0.00     0.382 C 
ATOM     23  O   LIG d   1      -7.307  70.648 117.515  0.00  0.00    -0.241 OA
ATOM     24  O   LIG d   1      -6.418  71.097 115.599  0.00  0.00    -0.241 OA
ENDBRANCH   3  22
TORSDOF 7
ENDMDL
MODEL 6
REMARK VINA RESULT:      -5.0     14.662     16.711
REMARK  7 active torsions:
REMARK  status: ('A' for Active; 'I' for Inactive)
REMARK    1  A    between atoms: C_2  and  C_3 
REMARK    2  A    between atoms: C_3  and  O_6 
REMARK    3  A    between atoms: C_3  and  C_4 
REMARK    4  A    between atoms: C_7  and  O_6 
REMARK    5  A    between atoms: C_9  and  C_10 
REMARK    6  A    between atoms: N_15  and  C_14 
REMARK    7  A    between atoms: N_20  and  C_19 
REMARK       I    between atoms: C_22  and  N_20 
ROOT
ATOM      1  C   LIG d   1      -7.951  76.145 116.522  0.00  0.00     0.161 C 
ATOM      2  C   LIG d   1      -6.973  75.718 115.609  0.00  0.00     0.016 C 
ATOM      3  C   LIG d   1      -5.687  76.297 115.519  0.00  0.00     0.038 C 
ATOM      4  C   LIG d   1      -5.236  77.249 116.445  0.00  0.00     0.028 C 
ATOM      5  C   LIG d   1      -6.361  78.070 117.067  0.00  0.00    -0.047 C 
ATOM      6  C   LIG d   1      -7.439  77.108 117.615  0.00  0.00     0.091 C 
ENDROOT
BRANCH   1   7
ATOM      7  O   LIG d   1      -8.592  75.002 117.122  0.00  0.00    -0.368 OA
BRANCH   7   8
ATOM      8  C   LIG d   1      -7.835  73.767 117.110  0.00  0.00     0.119 C 
BRANCH   8   9
ATOM      9  C   LIG d   1      -8.845  72.605 117.056  0.00  0.00     0.028 C 
ATOM     10  C   LIG d   1      -8.172  71.257 116.748  0.00  0.00     0.006 C 
ENDBRANCH   8   9
BRANCH   8  11
ATOM     11  C   LIG d   1      -7.064  73.574 118.419  0.00  0.00     0.028 C 
ATOM     12  C   LIG d   1      -5.563  73.873 118.277  0.00  0.00     0.006 C 
ENDBRANCH   8  11
ENDBRANCH   7   8
ENDBRANCH   1   7
BRANCH   6  13
ATOM     13  N   LIG d   1      -8.616  77.829 118.165  0.00  0.00    -0.311 N 
ATOM     14  C   LIG d   1      -9.038  77.693 119.421  0.00  0.00     0.210 C 
ATOM     15  C   LIG d   1     -10.282  78.513 119.778  0.00  0.00     0.109 C 
ATOM     16  O   LIG d   1      -8.481  76.995 120.282  0.00  0.00    -0.276 OA
ATOM     17  H   LIG d   1      -9.108  78.441 117.544  0.00  0.00     0.149 HD
ENDBRANCH   6  13
BRANCH   5  18
ATOM     18  N   LIG d   1      -5.764  78.924 118.111  0.00  0.00     0.381 N 
ATOM     19  H   LIG d   1      -5.406  79.762 117.699  0.00  0.00    -0.090 HD
ATOM     20  H   LIG d   1      -5.000  78.431 118.538  0.00  0.00    -0.090 HD
ATOM     21  H   LIG d   1      -6.449  79.150 118.799  0.00  0.00    -0.090 HD
ENDBRANCH   5  18
BRANCH   3  22
ATOM     22  C   LIG d   1      -4.850  75.953 114.468  0.00  0.00     0.382 C 
ATOM     23  O   LIG d   1      -3.846  75.230 114.677  0.00  0.00    -0.241 OA
ATOM     24  O   LIG d   1      -5.062  76.392 113.322  0.00  0.00    -0.241 OA
ENDBRANCH   3  22
TORSDOF 7
ENDMDL
MODEL 7
REMARK VINA RESULT:      -4.9     15.895     18.247
REMARK  7 active torsions:
REMARK  status: ('A' for Active; 'I' for Inactive)
REMARK    1  A    between atoms: C_2  and  C_3 
REMARK    2  A    between atoms: C_3  and  O_6 
REMARK    3  A    between atoms: C_3  and  C_4 
REMARK    4  A    between atoms: C_7  and  O_6 
REMARK    5  A    between atoms: C_9  and  C_10 
REMARK    6  A    between atoms: N_15  and  C_14 
REMARK    7  A    between atoms: N_20  and  C_19 
REMARK       I    between atoms: C_22  and  N_20 
ROOT
ATOM      1  C   LIG d   1      -3.873  73.874 116.897  0.00  0.00     0.161 C 
ATOM      2  C   LIG d   1      -2.883  73.380 117.763  0.00  0.00     0.016 C 
ATOM      3  C   LIG d   1      -1.517  73.730 117.663  0.00  0.00     0.038 C 
ATOM      4  C   LIG d   1      -1.069  74.723 116.779  0.00  0.00     0.028 C 
ATOM      5  C   LIG d   1      -1.952  74.879 115.546  0.00  0.00    -0.047 C 
ATOM      6  C   LIG d   1      -3.421  75.043 115.998  0.00  0.00     0.091 C 
ENDROOT
BRANCH   1   7
ATOM      7  O   LIG d   1      -5.041  74.247 117.655  0.00  0.00    -0.368 OA
BRANCH   7   8
ATOM      8  C   LIG d   1      -6.070  73.235 117.780  0.00  0.00     0.119 C 
BRANCH   8   9
ATOM      9  C   LIG d   1      -6.148  72.485 116.435  0.00  0.00     0.028 C 
ATOM     10  C   LIG d   1      -6.881  71.139 116.556  0.00  0.00     0.006 C 
ENDBRANCH   8   9
BRANCH   8  11
ATOM     11  C   LIG d   1      -7.452  73.865 117.972  0.00  0.00     0.028 C 
ATOM     12  C   LIG d   1      -7.874  74.751 116.789  0.00  0.00     0.006 C 
ENDBRANCH   8  11
ENDBRANCH   7   8
ENDBRANCH   1   7
BRANCH   6  13
ATOM     13  N   LIG d   1      -4.362  75.118 114.851  0.00  0.00    -0.311 N 
ATOM     14  C   LIG d   1      -5.251  76.098 114.694  0.00  0.00     0.210 C 
ATOM     15  C   LIG d   1      -6.139  75.973 113.452  0.00  0.00     0.109 C 
ATOM     16  O   LIG d   1      -5.366  77.075 115.449  0.00  0.00    -0.276 OA
ATOM     17  H   LIG d   1      -4.316  74.382 114.173  0.00  0.00     0.149 HD
ENDBRANCH   6  13
BRANCH   5  18
ATOM     18  N   LIG d   1      -1.449  76.037 114.782  0.00  0.00     0.381 N 
ATOM     19  H   LIG d   1      -2.170  76.384 114.180  0.00  0.00    -0.090 HD
ATOM     20  H   LIG d   1      -0.678  75.739 114.210  0.00  0.00    -0.090 HD
ATOM     21  H   LIG d   1      -1.152  76.754 115.406  0.00  0.00    -0.090 HD
ENDBRANCH   5  18
BRANCH   3  22
ATOM     22  C   LIG d   1      -0.577  73.055 118.426  0.00  0.00     0.382 C 
ATOM     23  O   LIG d   1       0.408  73.672 118.899  0.00  0.00    -0.241 OA
ATOM     24  O   LIG d   1      -0.677  71.827 118.611  0.00  0.00    -0.241 OA
ENDBRANCH   3  22
TORSDOF 7
ENDMDL
MODEL 8
REMARK VINA RESULT:      -4.8     15.370     17.444
REMARK  7 active torsions:
REMARK  status: ('A' for Active; 'I' for Inactive)
REMARK    1  A    between atoms: C_2  and  C_3 
REMARK    2  A    between atoms: C_3  and  O_6 
REMARK    3  A    between atoms: C_3  and  C_4 
REMARK    4  A    between atoms: C_7  and  O_6 
REMARK    5  A    between atoms: C_9  and  C_10 
REMARK    6  A    between atoms: N_15  and  C_14 
REMARK    7  A    between atoms: N_20  and  C_19 
REMARK       I    between atoms: C_22  and  N_20 
ROOT
ATOM      1  C   LIG d   1      -3.964  73.843 116.446  0.00  0.00     0.161 C 
ATOM      2  C   LIG d   1      -3.321  74.947 115.863  0.00  0.00     0.016 C 
ATOM      3  C   LIG d   1      -4.000  76.120 115.460  0.00  0.00     0.038 C 
ATOM      4  C   LIG d   1      -5.356  76.329 115.752  0.00  0.00     0.028 C 
ATOM      5  C   LIG d   1      -6.153  75.036 115.886  0.00  0.00    -0.047 C 
ATOM      6  C   LIG d   1      -5.425  74.097 116.874  0.00  0.00     0.091 C 
ENDROOT
BRANCH   1   7
ATOM      7  O   LIG d   1      -3.192  73.360 117.563  0.00  0.00    -0.368 OA
BRANCH   7   8
ATOM      8  C   LIG d   1      -1.984  74.099 117.869  0.00  0.00     0.119 C 
BRANCH   8   9
ATOM      9  C   LIG d   1      -0.807  73.105 117.816  0.00  0.00     0.028 C 
ATOM     10  C   LIG d   1      -0.731  72.219 119.071  0.00  0.00     0.006 C 
ENDBRANCH   8   9
BRANCH   8  11
ATOM     11  C   LIG d   1      -2.003  74.629 119.306  0.00  0.00     0.028 C 
ATOM     12  C   LIG d   1      -3.277  75.425 119.631  0.00  0.00     0.006 C 
ENDBRANCH   8  11
ENDBRANCH   7   8
ENDBRANCH   1   7
BRANCH   6  13
ATOM     13  N   LIG d   1      -6.094  72.776 116.998  0.00  0.00    -0.311 N 
ATOM     14  C   LIG d   1      -6.962  72.482 117.965  0.00  0.00     0.210 C 
ATOM     15  C   LIG d   1      -7.520  71.056 117.920  0.00  0.00     0.109 C 
ATOM     16  O   LIG d   1      -7.347  73.276 118.836  0.00  0.00    -0.276 OA
ATOM     17  H   LIG d   1      -5.863  72.082 116.315  0.00  0.00     0.149 HD
ENDBRANCH   6  13
BRANCH   5  18
ATOM     18  N   LIG d   1      -7.514  75.396 116.326  0.00  0.00     0.381 N 
ATOM     19  H   LIG d   1      -8.006  74.573 116.613  0.00  0.00    -0.090 HD
ATOM     20  H   LIG d   1      -8.009  75.804 115.552  0.00  0.00    -0.090 HD
ATOM     21  H   LIG d   1      -7.469  76.045 117.080  0.00  0.00    -0.090 HD
ENDBRANCH   5  18
BRANCH   3  22
ATOM     22  C   LIG d   1      -3.329  77.082 114.720  0.00  0.00     0.382 C 
ATOM     23  O   LIG d   1      -3.384  78.288 115.063  0.00  0.00    -0.241 OA
ATOM     24  O   LIG d   1      -2.707  76.766 113.689  0.00  0.00    -0.241 OA
ENDBRANCH   3  22
TORSDOF 7
ENDMDL
MODEL 9
REMARK VINA RESULT:      -4.8     15.824     17.730
REMARK  7 active torsions:
REMARK  status: ('A' for Active; 'I' for Inactive)
REMARK    1  A    between atoms: C_2  and  C_3 
REMARK    2  A    between atoms: C_3  and  O_6 
REMARK    3  A    between atoms: C_3  and  C_4 
REMARK    4  A    between atoms: C_7  and  O_6 
REMARK    5  A    between atoms: C_9  and  C_10 
REMARK    6  A    between atoms: N_15  and  C_14 
REMARK    7  A    between atoms: N_20  and  C_19 
REMARK       I    between atoms: C_22  and  N_20 
ROOT
ATOM      1  C   LIG d   1      -5.733  74.030 117.413  0.00  0.00     0.161 C 
ATOM      2  C   LIG d   1      -6.150  72.691 117.493  0.00  0.00     0.016 C 
ATOM      3  C   LIG d   1      -7.503  72.291 117.402  0.00  0.00     0.038 C 
ATOM      4  C   LIG d   1      -8.523  73.195 117.071  0.00  0.00     0.028 C 
ATOM      5  C   LIG d   1      -8.215  74.632 117.481  0.00  0.00    -0.047 C 
ATOM      6  C   LIG d   1      -6.820  75.019 116.941  0.00  0.00     0.091 C 
ENDROOT
BRANCH   1   7
ATOM      7  O   LIG d   1      -4.567  74.129 116.572  0.00  0.00    -0.368 OA
BRANCH   7   8
ATOM      8  C   LIG d   1      -3.288  73.975 117.235  0.00  0.00     0.119 C 
BRANCH   8   9
ATOM      9  C   LIG d   1      -3.306  74.868 118.491  0.00  0.00     0.028 C 
ATOM     10  C   LIG d   1      -2.716  76.263 118.227  0.00  0.00     0.006 C 
ENDBRANCH   8   9
BRANCH   8  11
ATOM     11  C   LIG d   1      -2.143  74.514 116.371  0.00  0.00     0.028 C 
ATOM     12  C   LIG d   1      -0.905  73.604 116.387  0.00  0.00     0.006 C 
ENDBRANCH   8  11
ENDBRANCH   7   8
ENDBRANCH   1   7
BRANCH   6  13
ATOM     13  N   LIG d   1      -6.405  76.381 117.369  0.00  0.00    -0.311 N 
ATOM     14  C   LIG d   1      -5.867  77.276 116.542  0.00  0.00     0.210 C 
ATOM     15  C   LIG d   1      -5.493  78.612 117.192  0.00  0.00     0.109 C 
ATOM     16  O   LIG d   1      -5.694  77.103 115.327  0.00  0.00    -0.276 OA
ATOM     17  H   LIG d   1      -6.538  76.617 118.332  0.00  0.00     0.149 HD
ENDBRANCH   6  13
BRANCH   5  18
ATOM     18  N   LIG d   1      -9.296  75.486 116.954  0.00  0.00     0.381 N 
ATOM     19  H   LIG d   1      -9.559  75.176 116.040  0.00  0.00    -0.090 HD
ATOM     20  H   LIG d   1      -8.959  76.430 116.882  0.00  0.00    -0.090 HD
ATOM     21  H   LIG d   1     -10.084  75.453 117.564  0.00  0.00    -0.090 HD
ENDBRANCH   5  18
BRANCH   3  22
ATOM     22  C   LIG d   1      -7.851  70.978 117.683  0.00  0.00     0.382 C 
ATOM     23  O   LIG d   1      -7.582  70.484 118.804  0.00  0.00    -0.241 OA
ATOM     24  O   LIG d   1      -8.392  70.269 116.813  0.00  0.00    -0.241 OA
ENDBRANCH   3  22
TORSDOF 7
ENDMDL
