MODEL 1
REMARK VINA RESULT:      -5.6      0.000      0.000
REMARK  7 active torsions:
REMARK  status: ('A' for Active; 'I' for Inactive)
REMARK    1  A    between atoms: C_2  and  C_3 
REMARK    2  A    between atoms: C_3  and  O_6 
REMARK    3  A    between atoms: C_3  and  C_4 
REMARK    4  A    between atoms: C_7  and  O_6 
REMARK    5  A    between atoms: C_9  and  C_10 
REMARK    6  A    between atoms: N_15  and  C_14 
REMARK    7  A    between atoms: N_20  and  C_19 
REMARK       I    between atoms: C_22  and  N_20 
ROOT
ATOM      1  C   LIG d   1      -7.545  76.477 117.576  0.00  0.00     0.161 C 
ATOM      2  C   LIG d   1      -8.596  77.322 117.968  0.00  0.00     0.016 C 
ATOM      3  C   LIG d   1      -8.475  78.729 118.046  0.00  0.00     0.038 C 
ATOM      4  C   LIG d   1      -7.332  79.401 117.590  0.00  0.00     0.028 C 
ATOM      5  C   LIG d   1      -6.064  78.558 117.660  0.00  0.00    -0.047 C 
ATOM      6  C   LIG d   1      -6.325  77.200 116.968  0.00  0.00     0.091 C 
ENDROOT
BRANCH   1   7
ATOM      7  O   LIG d   1      -8.038  75.474 116.666  0.00  0.00    -0.368 OA
BRANCH   7   8
ATOM      8  C   LIG d   1      -8.232  74.150 117.221  0.00  0.00     0.119 C 
BRANCH   8   9
ATOM      9  C   LIG d   1      -7.096  73.254 116.690  0.00  0.00     0.028 C 
ATOM     10  C   LIG d   1      -6.124  72.820 117.800  0.00  0.00     0.006 C 
ENDBRANCH   8   9
BRANCH   8  11
ATOM     11  C   LIG d   1      -9.526  73.514 116.704  0.00  0.00     0.028 C 
ATOM     12  C   LIG d   1      -9.352  72.035 116.322  0.00  0.00     0.006 C 
ENDBRANCH   8  11
ENDBRANCH   7   8
ENDBRANCH   1   7
BRANCH   6  13
ATOM     13  N   LIG d   1      -5.162  76.281 117.066  0.00  0.00    -0.311 N 
ATOM     14  C   LIG d   1      -4.500  75.820 116.006  0.00  0.00     0.210 C 
ATOM     15  C   LIG d   1      -3.344  74.868 116.329  0.00  0.00     0.109 C 
ATOM     16  O   LIG d   1      -4.740  76.135 114.831  0.00  0.00    -0.276 OA
ATOM     17  H   LIG d   1      -4.879  75.999 117.984  0.00  0.00     0.149 HD
ENDBRANCH   6  13
BRANCH   5  18
ATOM     18  N   LIG d   1      -4.979  79.330 117.027  0.00  0.00     0.381 N 
ATOM     19  H   LIG d   1      -5.213  80.303 117.024  0.00  0.00    -0.090 HD
ATOM     20  H   LIG d   1      -4.877  79.027 116.075  0.00  0.00    -0.090 HD
ATOM     21  H   LIG d   1      -4.125  79.188 117.522  0.00  0.00    -0.090 HD
ENDBRANCH   5  18
BRANCH   3  22
ATOM     22  C   LIG d   1      -9.492  79.475 118.624  0.00  0.00     0.382 C 
ATOM     23  O   LIG d   1      -9.995  79.110 119.714  0.00  0.00    -0.241 OA
ATOM     24  O   LIG d   1      -9.942  80.482 118.047  0.00  0.00    -0.241 OA
ENDBRANCH   3  22
TORSDOF 7
ENDMDL
MODEL 2
REMARK VINA RESULT:      -5.6      1.917      2.738
REMARK  7 active torsions:
REMARK  status: ('A' for Active; 'I' for Inactive)
REMARK    1  A    between atoms: C_2  and  C_3 
REMARK    2  A    between atoms: C_3  and  O_6 
REMARK    3  A    between atoms: C_3  and  C_4 
REMARK    4  A    between atoms: C_7  and  O_6 
REMARK    5  A    between atoms: C_9  and  C_10 
REMARK    6  A    between atoms: N_15  and  C_14 
REMARK    7  A    between atoms: N_20  and  C_19 
REMARK       I    between atoms: C_22  and  N_20 
ROOT
ATOM      1  C   LIG d   1      -6.597  74.827 118.223  0.00  0.00     0.161 C 
ATOM      2  C   LIG d   1      -7.908  75.263 117.968  0.00  0.00     0.016 C 
ATOM      3  C   LIG d   1      -8.261  76.624 117.822  0.00  0.00     0.038 C 
ATOM      4  C   LIG d   1      -7.294  77.639 117.771  0.00  0.00     0.028 C 
ATOM      5  C   LIG d   1      -6.015  77.296 118.528  0.00  0.00    -0.047 C 
ATOM      6  C   LIG d   1      -5.512  75.911 118.061  0.00  0.00     0.091 C 
ENDROOT
BRANCH   1   7
ATOM      7  O   LIG d   1      -6.292  73.685 117.398  0.00  0.00    -0.368 OA
BRANCH   7   8
ATOM      8  C   LIG d   1      -6.904  73.667 116.085  0.00  0.00     0.119 C 
BRANCH   8   9
ATOM      9  C   LIG d   1      -7.366  72.222 115.810  0.00  0.00     0.028 C 
ATOM     10  C   LIG d   1      -8.777  71.943 116.354  0.00  0.00     0.006 C 
ENDBRANCH   8   9
BRANCH   8  11
ATOM     11  C   LIG d   1      -5.882  73.981 114.989  0.00  0.00     0.028 C 
ATOM     12  C   LIG d   1      -5.927  75.449 114.535  0.00  0.00     0.006 C 
ENDBRANCH   8  11
ENDBRANCH   7   8
ENDBRANCH   1   7
BRANCH   6  13
ATOM     13  N   LIG d   1      -4.310  75.462 118.812  0.00  0.00    -0.311 N 
ATOM     14  C   LIG d   1      -3.186  75.059 118.223  0.00  0.00     0.210 C 
ATOM     15  C   LIG d   1      -2.076  74.618 119.182  0.00  0.00     0.109 C 
ATOM     16  O   LIG d   1      -2.991  75.056 116.998  0.00  0.00    -0.276 OA
ATOM     17  H   LIG d   1      -4.371  75.463 119.811  0.00  0.00     0.149 HD
ENDBRANCH   6  13
BRANCH   5  18
ATOM     18  N   LIG d   1      -5.045  78.379 118.277  0.00  0.00     0.381 N 
ATOM     19  H   LIG d   1      -4.120  78.000 118.227  0.00  0.00    -0.090 HD
ATOM     20  H   LIG d   1      -5.078  79.029 119.043  0.00  0.00    -0.090 HD
ATOM     21  H   LIG d   1      -5.267  78.846 117.426  0.00  0.00    -0.090 HD
ENDBRANCH   5  18
BRANCH   3  22
ATOM     22  C   LIG d   1      -9.598  76.985 117.765  0.00  0.00     0.382 C 
ATOM     23  O   LIG d   1      -9.949  78.145 118.091  0.00  0.00    -0.241 OA
ATOM     24  O   LIG d   1     -10.464  76.153 117.434  0.00  0.00    -0.241 OA
ENDBRANCH   3  22
TORSDOF 7
ENDMDL
MODEL 3
REMARK VINA RESULT:      -5.5      1.772      4.704
REMARK  7 active torsions:
REMARK  status: ('A' for Active; 'I' for Inactive)
REMARK    1  A    between atoms: C_2  and  C_3 
REMARK    2  A    between atoms: C_3  and  O_6 
REMARK    3  A    between atoms: C_3  and  C_4 
REMARK    4  A    between atoms: C_7  and  O_6 
REMARK    5  A    between atoms: C_9  and  C_10 
REMARK    6  A    between atoms: N_15  and  C_14 
REMARK    7  A    between atoms: N_20  and  C_19 
REMARK       I    between atoms: C_22  and  N_20 
ROOT
ATOM      1  C   LIG d   1      -8.015  76.461 117.072  0.00  0.00     0.161 C 
ATOM      2  C   LIG d   1      -7.041  76.091 116.130  0.00  0.00     0.016 C 
ATOM      3  C   LIG d   1      -5.795  76.747 115.999  0.00  0.00     0.038 C 
ATOM      4  C   LIG d   1      -5.376  77.729 116.909  0.00  0.00     0.028 C 
ATOM      5  C   LIG d   1      -6.529  78.482 117.563  0.00  0.00    -0.047 C 
ATOM      6  C   LIG d   1      -7.530  77.458 118.145  0.00  0.00     0.091 C 
ENDROOT
BRANCH   1   7
ATOM      7  O   LIG d   1      -8.566  75.284 117.693  0.00  0.00    -0.368 OA
BRANCH   7   8
ATOM      8  C   LIG d   1      -8.165  74.014 117.122  0.00  0.00     0.119 C 
BRANCH   8   9
ATOM      9  C   LIG d   1      -9.446  73.195 116.870  0.00  0.00     0.028 C 
ATOM     10  C   LIG d   1      -9.145  71.795 116.307  0.00  0.00     0.006 C 
ENDBRANCH   8   9
BRANCH   8  11
ATOM     11  C   LIG d   1      -7.346  73.189 118.118  0.00  0.00     0.028 C 
ATOM     12  C   LIG d   1      -5.863  73.084 117.728  0.00  0.00     0.006 C 
ENDBRANCH   8  11
ENDBRANCH   7   8
ENDBRANCH   1   7
BRANCH   6  13
ATOM     13  N   LIG d   1      -8.732  78.109 118.730  0.00  0.00    -0.311 N 
ATOM     14  C   LIG d   1      -8.825  78.459 120.012  0.00  0.00     0.210 C 
ATOM     15  C   LIG d   1     -10.158  79.099 120.411  0.00  0.00     0.109 C 
ATOM     16  O   LIG d   1      -7.918  78.331 120.848  0.00  0.00    -0.276 OA
ATOM     17  H   LIG d   1      -9.503  78.279 118.115  0.00  0.00     0.149 HD
ENDBRANCH   6  13
BRANCH   5  18
ATOM     18  N   LIG d   1      -5.955  79.376 118.586  0.00  0.00     0.381 N 
ATOM     19  H   LIG d   1      -6.177  80.327 118.368  0.00  0.00    -0.090 HD
ATOM     20  H   LIG d   1      -4.956  79.276 118.581  0.00  0.00    -0.090 HD
ATOM     21  H   LIG d   1      -6.316  79.141 119.485  0.00  0.00    -0.090 HD
ENDBRANCH   5  18
BRANCH   3  22
ATOM     22  C   LIG d   1      -4.971  76.450 114.924  0.00  0.00     0.382 C 
ATOM     23  O   LIG d   1      -5.459  76.333 113.774  0.00  0.00    -0.241 OA
ATOM     24  O   LIG d   1      -3.753  76.254 115.097  0.00  0.00    -0.241 OA
ENDBRANCH   3  22
TORSDOF 7
ENDMDL
MODEL 4
REMARK VINA RESULT:      -5.4      1.563      2.112
REMARK  7 active torsions:
REMARK  status: ('A' for Active; 'I' for Inactive)
REMARK    1  A    between atoms: C_2  and  C_3 
REMARK    2  A    between atoms: C_3  and  O_6 
REMARK    3  A    between atoms: C_3  and  C_4 
REMARK    4  A    between atoms: C_7  and  O_6 
REMARK    5  A    between atoms: C_9  and  C_10 
REMARK    6  A    between atoms: N_15  and  C_14 
REMARK    7  A    between atoms: N_20  and  C_19 
REMARK       I    between atoms: C_22  and  N_20 
ROOT
ATOM      1  C   LIG d   1      -6.459  76.206 118.505  0.00  0.00     0.161 C 
ATOM      2  C   LIG d   1      -7.317  77.318 118.469  0.00  0.00     0.016 C 
ATOM      3  C   LIG d   1      -7.023  78.505 117.759  0.00  0.00     0.038 C 
ATOM      4  C   LIG d   1      -5.913  78.603 116.907  0.00  0.00     0.028 C 
ATOM      5  C   LIG d   1      -4.759  77.691 117.308  0.00  0.00    -0.047 C 
ATOM      6  C   LIG d   1      -5.296  76.253 117.492  0.00  0.00     0.091 C 
ENDROOT
BRANCH   1   7
ATOM      7  O   LIG d   1      -7.222  74.995 118.335  0.00  0.00    -0.368 OA
BRANCH   7   8
ATOM      8  C   LIG d   1      -7.763  74.762 117.011  0.00  0.00     0.119 C 
BRANCH   8   9
ATOM      9  C   LIG d   1      -9.261  74.438 117.173  0.00  0.00     0.028 C 
ATOM     10  C   LIG d   1     -10.139  75.701 117.167  0.00  0.00     0.006 C 
ENDBRANCH   8   9
BRANCH   8  11
ATOM     11  C   LIG d   1      -7.146  73.517 116.368  0.00  0.00     0.028 C 
ATOM     12  C   LIG d   1      -8.090  72.304 116.391  0.00  0.00     0.006 C 
ENDBRANCH   8  11
ENDBRANCH   7   8
ENDBRANCH   1   7
BRANCH   6  13
ATOM     13  N   LIG d   1      -4.248  75.312 117.966  0.00  0.00    -0.311 N 
ATOM     14  C   LIG d   1      -3.470  74.608 117.146  0.00  0.00     0.210 C 
ATOM     15  C   LIG d   1      -2.468  73.682 117.842  0.00  0.00     0.109 C 
ATOM     16  O   LIG d   1      -3.492  74.687 115.908  0.00  0.00    -0.276 OA
ATOM     17  H   LIG d   1      -4.141  75.210 118.956  0.00  0.00     0.149 HD
ENDBRANCH   6  13
BRANCH   5  18
ATOM     18  N   LIG d   1      -3.725  77.792 116.260  0.00  0.00     0.381 N 
ATOM     19  H   LIG d   1      -3.929  77.149 115.521  0.00  0.00    -0.090 HD
ATOM     20  H   LIG d   1      -2.835  77.546 116.656  0.00  0.00    -0.090 HD
ATOM     21  H   LIG d   1      -3.693  78.721 115.903  0.00  0.00    -0.090 HD
ENDBRANCH   5  18
BRANCH   3  22
ATOM     22  C   LIG d   1      -7.824  79.624 117.929  0.00  0.00     0.382 C 
ATOM     23  O   LIG d   1      -8.762  79.602 118.763  0.00  0.00    -0.241 OA
ATOM     24  O   LIG d   1      -7.649  80.638 117.229  0.00  0.00    -0.241 OA
ENDBRANCH   3  22
TORSDOF 7
ENDMDL
MODEL 5
REMARK VINA RESULT:      -5.4      2.039      5.247
REMARK  7 active torsions:
REMARK  status: ('A' for Active; 'I' for Inactive)
REMARK    1  A    between atoms: C_2  and  C_3 
REMARK    2  A    between atoms: C_3  and  O_6 
REMARK    3  A    between atoms: C_3  and  C_4 
REMARK    4  A    between atoms: C_7  and  O_6 
REMARK    5  A    between atoms: C_9  and  C_10 
REMARK    6  A    between atoms: N_15  and  C_14 
REMARK    7  A    between atoms: N_20  and  C_19 
REMARK       I    between atoms: C_22  and  N_20 
ROOT
ATOM      1  C   LIG d   1      -6.247  74.958 117.082  0.00  0.00     0.161 C 
ATOM      2  C   LIG d   1      -5.045  74.267 116.857  0.00  0.00     0.016 C 
ATOM      3  C   LIG d   1      -3.778  74.763 117.243  0.00  0.00     0.038 C 
ATOM      4  C   LIG d   1      -3.642  75.923 118.020  0.00  0.00     0.028 C 
ATOM      5  C   LIG d   1      -4.786  76.915 117.835  0.00  0.00    -0.047 C 
ATOM      6  C   LIG d   1      -6.128  76.173 118.026  0.00  0.00     0.091 C 
ENDROOT
BRANCH   1   7
ATOM      7  O   LIG d   1      -7.253  74.045 117.563  0.00  0.00    -0.368 OA
BRANCH   7   8
ATOM      8  C   LIG d   1      -8.076  73.412 116.553  0.00  0.00     0.119 C 
BRANCH   8   9
ATOM      9  C   LIG d   1      -9.546  73.579 116.982  0.00  0.00     0.028 C 
ATOM     10  C   LIG d   1      -9.980  75.053 117.032  0.00  0.00     0.006 C 
ENDBRANCH   8   9
BRANCH   8  11
ATOM     11  C   LIG d   1      -7.836  71.901 116.505  0.00  0.00     0.028 C 
ATOM     12  C   LIG d   1      -9.122  71.086 116.714  0.00  0.00     0.006 C 
ENDBRANCH   8  11
ENDBRANCH   7   8
ENDBRANCH   1   7
BRANCH   6  13
ATOM     13  N   LIG d   1      -7.301  77.051 117.779  0.00  0.00    -0.311 N 
ATOM     14  C   LIG d   1      -7.919  77.736 118.740  0.00  0.00     0.210 C 
ATOM     15  C   LIG d   1      -9.120  78.565 118.273  0.00  0.00     0.109 C 
ATOM     16  O   LIG d   1      -7.567  77.762 119.929  0.00  0.00    -0.276 OA
ATOM     17  H   LIG d   1      -7.634  77.113 116.837  0.00  0.00     0.149 HD
ENDBRANCH   6  13
BRANCH   5  18
ATOM     18  N   LIG d   1      -4.587  78.010 118.803  0.00  0.00     0.381 N 
ATOM     19  H   LIG d   1      -4.442  78.871 118.314  0.00  0.00    -0.090 HD
ATOM     20  H   LIG d   1      -3.767  77.816 119.350  0.00  0.00    -0.090 HD
ATOM     21  H   LIG d   1      -5.382  78.087 119.398  0.00  0.00    -0.090 HD
ENDBRANCH   5  18
BRANCH   3  22
ATOM     22  C   LIG d   1      -2.628  74.117 116.817  0.00  0.00     0.382 C 
ATOM     23  O   LIG d   1      -2.211  74.287 115.646  0.00  0.00    -0.241 OA
ATOM     24  O   LIG d   1      -2.027  73.332 117.574  0.00  0.00    -0.241 OA
ENDBRANCH   3  22
TORSDOF 7
ENDMDL
MODEL 6
REMARK VINA RESULT:      -5.3      2.409      5.349
REMARK  7 active torsions:
REMARK  status: ('A' for Active; 'I' for Inactive)
REMARK    1  A    between atoms: C_2  and  C_3 
REMARK    2  A    between atoms: C_3  and  O_6 
REMARK    3  A    between atoms: C_3  and  C_4 
REMARK    4  A    between atoms: C_7  and  O_6 
REMARK    5  A    between atoms: C_9  and  C_10 
REMARK    6  A    between atoms: N_15  and  C_14 
REMARK    7  A    between atoms: N_20  and  C_19 
REMARK       I    between atoms: C_22  and  N_20 
ROOT
ATOM      1  C   LIG d   1      -6.519  74.866 118.034  0.00  0.00     0.161 C 
ATOM      2  C   LIG d   1      -6.739  73.567 117.546  0.00  0.00     0.016 C 
ATOM      3  C   LIG d   1      -7.949  73.158 116.941  0.00  0.00     0.038 C 
ATOM      4  C   LIG d   1      -8.974  74.068 116.644  0.00  0.00     0.028 C 
ATOM      5  C   LIG d   1      -8.998  75.278 117.572  0.00  0.00    -0.047 C 
ATOM      6  C   LIG d   1      -7.584  75.902 117.619  0.00  0.00     0.091 C 
ENDROOT
BRANCH   1   7
ATOM      7  O   LIG d   1      -5.205  75.316 117.649  0.00  0.00    -0.368 OA
BRANCH   7   8
ATOM      8  C   LIG d   1      -4.735  74.875 116.352  0.00  0.00     0.119 C 
BRANCH   8   9
ATOM      9  C   LIG d   1      -3.218  74.628 116.469  0.00  0.00     0.028 C 
ATOM     10  C   LIG d   1      -2.839  73.910 117.775  0.00  0.00     0.006 C 
ENDBRANCH   8   9
BRANCH   8  11
ATOM     11  C   LIG d   1      -4.887  75.977 115.299  0.00  0.00     0.028 C 
ATOM     12  C   LIG d   1      -6.059  75.725 114.338  0.00  0.00     0.006 C 
ENDBRANCH   8  11
ENDBRANCH   7   8
ENDBRANCH   1   7
BRANCH   6  13
ATOM     13  N   LIG d   1      -7.499  77.041 118.570  0.00  0.00    -0.311 N 
ATOM     14  C   LIG d   1      -7.188  78.282 118.201  0.00  0.00     0.210 C 
ATOM     15  C   LIG d   1      -7.135  79.302 119.343  0.00  0.00     0.109 C 
ATOM     16  O   LIG d   1      -6.983  78.642 117.032  0.00  0.00    -0.276 OA
ATOM     17  H   LIG d   1      -7.681  76.844 119.535  0.00  0.00     0.149 HD
ENDBRANCH   6  13
BRANCH   5  18
ATOM     18  N   LIG d   1     -10.024  76.209 117.065  0.00  0.00     0.381 N 
ATOM     19  H   LIG d   1      -9.949  77.086 117.540  0.00  0.00    -0.090 HD
ATOM     20  H   LIG d   1     -10.933  75.825 117.254  0.00  0.00    -0.090 HD
ATOM     21  H   LIG d   1      -9.909  76.342 116.085  0.00  0.00    -0.090 HD
ENDBRANCH   5  18
BRANCH   3  22
ATOM     22  C   LIG d   1      -8.159  71.816 116.661  0.00  0.00     0.382 C 
ATOM     23  O   LIG d   1      -7.188  71.022 116.635  0.00  0.00    -0.241 OA
ATOM     24  O   LIG d   1      -9.301  71.398 116.392  0.00  0.00    -0.241 OA
ENDBRANCH   3  22
TORSDOF 7
ENDMDL
MODEL 7
REMARK VINA RESULT:      -5.1      3.846      5.939
REMARK  7 active torsions:
REMARK  status: ('A' for Active; 'I' for Inactive)
REMARK    1  A    between atoms: C_2  and  C_3 
REMARK    2  A    between atoms: C_3  and  O_6 
REMARK    3  A    between atoms: C_3  and  C_4 
REMARK    4  A    between atoms: C_7  and  O_6 
REMARK    5  A    between atoms: C_9  and  C_10 
REMARK    6  A    between atoms: N_15  and  C_14 
REMARK    7  A    between atoms: N_20  and  C_19 
REMARK       I    between atoms: C_22  and  N_20 
ROOT
ATOM      1  C   LIG d   1      -4.220  74.609 117.444  0.00  0.00     0.161 C 
ATOM      2  C   LIG d   1      -5.035  73.479 117.625  0.00  0.00     0.016 C 
ATOM      3  C   LIG d   1      -6.202  73.231 116.866  0.00  0.00     0.038 C 
ATOM      4  C   LIG d   1      -6.552  74.025 115.764  0.00  0.00     0.028 C 
ATOM      5  C   LIG d   1      -6.039  75.458 115.862  0.00  0.00    -0.047 C 
ATOM      6  C   LIG d   1      -4.525  75.429 116.173  0.00  0.00     0.091 C 
ENDROOT
BRANCH   1   7
ATOM      7  O   LIG d   1      -2.833  74.220 117.469  0.00  0.00    -0.368 OA
BRANCH   7   8
ATOM      8  C   LIG d   1      -2.151  74.372 118.739  0.00  0.00     0.119 C 
BRANCH   8   9
ATOM      9  C   LIG d   1      -1.371  75.700 118.689  0.00  0.00     0.028 C 
ATOM     10  C   LIG d   1      -0.534  75.841 117.406  0.00  0.00     0.006 C 
ENDBRANCH   8   9
BRANCH   8  11
ATOM     11  C   LIG d   1      -1.090  73.285 118.935  0.00  0.00     0.028 C 
ATOM     12  C   LIG d   1      -0.793  73.003 120.416  0.00  0.00     0.006 C 
ENDBRANCH   8  11
ENDBRANCH   7   8
ENDBRANCH   1   7
BRANCH   6  13
ATOM     13  N   LIG d   1      -3.960  76.789 116.369  0.00  0.00    -0.311 N 
ATOM     14  C   LIG d   1      -3.482  77.535 115.374  0.00  0.00     0.210 C 
ATOM     15  C   LIG d   1      -2.928  78.899 115.797  0.00  0.00     0.109 C 
ATOM     16  O   LIG d   1      -3.495  77.210 114.177  0.00  0.00    -0.276 OA
ATOM     17  H   LIG d   1      -3.940  77.144 117.305  0.00  0.00     0.149 HD
ENDBRANCH   6  13
BRANCH   5  18
ATOM     18  N   LIG d   1      -6.355  76.133 114.589  0.00  0.00     0.381 N 
ATOM     19  H   LIG d   1      -5.694  76.866 114.421  0.00  0.00    -0.090 HD
ATOM     20  H   LIG d   1      -7.270  76.543 114.657  0.00  0.00    -0.090 HD
ATOM     21  H   LIG d   1      -6.332  75.477 113.840  0.00  0.00    -0.090 HD
ENDBRANCH   5  18
BRANCH   3  22
ATOM     22  C   LIG d   1      -7.054  72.201 117.232  0.00  0.00     0.382 C 
ATOM     23  O   LIG d   1      -7.193  71.902 118.443  0.00  0.00    -0.241 OA
ATOM     24  O   LIG d   1      -7.652  71.537 116.364  0.00  0.00    -0.241 OA
ENDBRANCH   3  22
TORSDOF 7
ENDMDL
MODEL 8
REMARK VINA RESULT:      -5.0      2.266      5.357
REMARK  7 active torsions:
REMARK  status: ('A' for Active; 'I' for Inactive)
REMARK    1  A    between atoms: C_2  and  C_3 
REMARK    2  A    between atoms: C_3  and  O_6 
REMARK    3  A    between atoms: C_3  and  C_4 
REMARK    4  A    between atoms: C_7  and  O_6 
REMARK    5  A    between atoms: C_9  and  C_10 
REMARK    6  A    between atoms: N_15  and  C_14 
REMARK    7  A    between atoms: N_20  and  C_19 
REMARK       I    between atoms: C_22  and  N_20 
ROOT
ATOM      1  C   LIG d   1      -7.131  75.655 117.400  0.00  0.00     0.161 C 
ATOM      2  C   LIG d   1      -7.937  74.558 117.052  0.00  0.00     0.016 C 
ATOM      3  C   LIG d   1      -7.452  73.232 116.967  0.00  0.00     0.038 C 
ATOM      4  C   LIG d   1      -6.154  72.890 117.373  0.00  0.00     0.028 C 
ATOM      5  C   LIG d   1      -5.158  74.038 117.249  0.00  0.00    -0.047 C 
ATOM      6  C   LIG d   1      -5.739  75.285 117.954  0.00  0.00     0.091 C 
ENDROOT
BRANCH   1   7
ATOM      7  O   LIG d   1      -7.833  76.501 118.332  0.00  0.00    -0.368 OA
BRANCH   7   8
ATOM      8  C   LIG d   1      -8.548  77.623 117.760  0.00  0.00     0.119 C 
BRANCH   8   9
ATOM      9  C   LIG d   1      -7.674  78.877 117.954  0.00  0.00     0.028 C 
ATOM     10  C   LIG d   1      -8.507  80.169 118.018  0.00  0.00     0.006 C 
ENDBRANCH   8   9
BRANCH   8  11
ATOM     11  C   LIG d   1      -9.843  77.908 118.528  0.00  0.00     0.028 C 
ATOM     12  C   LIG d   1     -10.872  76.774 118.402  0.00  0.00     0.006 C 
ENDBRANCH   8  11
ENDBRANCH   7   8
ENDBRANCH   1   7
BRANCH   6  13
ATOM     13  N   LIG d   1      -4.865  76.478 117.807  0.00  0.00    -0.311 N 
ATOM     14  C   LIG d   1      -4.450  77.213 118.837  0.00  0.00     0.210 C 
ATOM     15  C   LIG d   1      -3.572  78.412 118.463  0.00  0.00     0.109 C 
ATOM     16  O   LIG d   1      -4.698  76.968 120.027  0.00  0.00    -0.276 OA
ATOM     17  H   LIG d   1      -4.590  76.730 116.878  0.00  0.00     0.149 HD
ENDBRANCH   6  13
BRANCH   5  18
ATOM     18  N   LIG d   1      -3.881  73.586 117.833  0.00  0.00     0.381 N 
ATOM     19  H   LIG d   1      -3.188  73.510 117.116  0.00  0.00    -0.090 HD
ATOM     20  H   LIG d   1      -4.014  72.677 118.241  0.00  0.00    -0.090 HD
ATOM     21  H   LIG d   1      -3.579  74.229 118.531  0.00  0.00    -0.090 HD
ENDBRANCH   5  18
BRANCH   3  22
ATOM     22  C   LIG d   1      -8.259  72.239 116.432  0.00  0.00     0.382 C 
ATOM     23  O   LIG d   1      -7.744  71.289 115.795  0.00  0.00    -0.241 OA
ATOM     24  O   LIG d   1      -9.498  72.305 116.541  0.00  0.00    -0.241 OA
ENDBRANCH   3  22
TORSDOF 7
ENDMDL
MODEL 9
REMARK VINA RESULT:      -5.0      1.957      2.658
REMARK  7 active torsions:
REMARK  status: ('A' for Active; 'I' for Inactive)
REMARK    1  A    between atoms: C_2  and  C_3 
REMARK    2  A    between atoms: C_3  and  O_6 
REMARK    3  A    between atoms: C_3  and  C_4 
REMARK    4  A    between atoms: C_7  and  O_6 
REMARK    5  A    between atoms: C_9  and  C_10 
REMARK    6  A    between atoms: N_15  and  C_14 
REMARK    7  A    between atoms: N_20  and  C_19 
REMARK       I    between atoms: C_22  and  N_20 
ROOT
ATOM      1  C   LIG d   1      -5.536  75.905 118.274  0.00  0.00     0.161 C 
ATOM      2  C   LIG d   1      -6.483  76.942 118.239  0.00  0.00     0.016 C 
ATOM      3  C   LIG d   1      -6.235  78.203 117.648  0.00  0.00     0.038 C 
ATOM      4  C   LIG d   1      -5.067  78.461 116.915  0.00  0.00     0.028 C 
ATOM      5  C   LIG d   1      -3.876  77.617 117.355  0.00  0.00    -0.047 C 
ATOM      6  C   LIG d   1      -4.297  76.130 117.382  0.00  0.00     0.091 C 
ENDROOT
BRANCH   1   7
ATOM      7  O   LIG d   1      -6.170  74.653 117.946  0.00  0.00    -0.368 OA
BRANCH   7   8
ATOM      8  C   LIG d   1      -7.034  74.662 116.783  0.00  0.00     0.119 C 
BRANCH   8   9
ATOM      9  C   LIG d   1      -8.198  73.693 117.064  0.00  0.00     0.028 C 
ATOM     10  C   LIG d   1      -8.042  72.357 116.319  0.00  0.00     0.006 C 
ENDBRANCH   8   9
BRANCH   8  11
ATOM     11  C   LIG d   1      -6.320  74.093 115.554  0.00  0.00     0.028 C 
ATOM     12  C   LIG d   1      -5.912  75.179 114.545  0.00  0.00     0.006 C 
ENDBRANCH   8  11
ENDBRANCH   7   8
ENDBRANCH   1   7
BRANCH   6  13
ATOM     13  N   LIG d   1      -3.215  75.243 117.883  0.00  0.00    -0.311 N 
ATOM     14  C   LIG d   1      -2.413  74.542 117.084  0.00  0.00     0.210 C 
ATOM     15  C   LIG d   1      -1.377  73.675 117.807  0.00  0.00     0.109 C 
ATOM     16  O   LIG d   1      -2.440  74.580 115.845  0.00  0.00    -0.276 OA
ATOM     17  H   LIG d   1      -3.103  75.177 118.876  0.00  0.00     0.149 HD
ENDBRANCH   6  13
BRANCH   5  18
ATOM     18  N   LIG d   1      -2.768  77.887 116.419  0.00  0.00     0.381 N 
ATOM     19  H   LIG d   1      -3.052  77.667 115.486  0.00  0.00    -0.090 HD
ATOM     20  H   LIG d   1      -1.989  77.299 116.659  0.00  0.00    -0.090 HD
ATOM     21  H   LIG d   1      -2.500  78.845 116.476  0.00  0.00    -0.090 HD
ENDBRANCH   5  18
BRANCH   3  22
ATOM     22  C   LIG d   1      -7.144  79.235 117.823  0.00  0.00     0.382 C 
ATOM     23  O   LIG d   1      -8.138  79.074 118.572  0.00  0.00    -0.241 OA
ATOM     24  O   LIG d   1      -7.007  80.309 117.208  0.00  0.00    -0.241 OA
ENDBRANCH   3  22
TORSDOF 7
ENDMDL
