MODEL 1
REMARK VINA RESULT:      -5.0      0.000      0.000
REMARK  7 active torsions:
REMARK  status: ('A' for Active; 'I' for Inactive)
REMARK    1  A    between atoms: C_2  and  C_3 
REMARK    2  A    between atoms: C_3  and  O_6 
REMARK    3  A    between atoms: C_3  and  C_4 
REMARK    4  A    between atoms: C_7  and  O_6 
REMARK    5  A    between atoms: C_9  and  C_10 
REMARK    6  A    between atoms: N_15  and  C_14 
REMARK    7  A    between atoms: N_20  and  C_19 
REMARK       I    between atoms: C_22  and  N_20 
ROOT
ATOM      1  C   LIG d   1      -4.760  91.988 117.920  0.00  0.00     0.161 C 
ATOM      2  C   LIG d   1      -4.944  91.145 116.812  0.00  0.00     0.016 C 
ATOM      3  C   LIG d   1      -6.106  91.161 116.006  0.00  0.00     0.038 C 
ATOM      4  C   LIG d   1      -7.105  92.133 116.165  0.00  0.00     0.028 C 
ATOM      5  C   LIG d   1      -7.197  92.681 117.585  0.00  0.00    -0.047 C 
ATOM      6  C   LIG d   1      -5.790  93.131 118.041  0.00  0.00     0.091 C 
ENDROOT
BRANCH   1   7
ATOM      7  O   LIG d   1      -3.421  92.520 117.912  0.00  0.00    -0.368 OA
BRANCH   7   8
ATOM      8  C   LIG d   1      -2.429  91.762 118.648  0.00  0.00     0.119 C 
BRANCH   8   9
ATOM      9  C   LIG d   1      -2.248  92.446 120.017  0.00  0.00     0.028 C 
ATOM     10  C   LIG d   1      -2.218  93.979 119.909  0.00  0.00     0.006 C 
ENDBRANCH   8   9
BRANCH   8  11
ATOM     11  C   LIG d   1      -1.057  91.836 117.973  0.00  0.00     0.028 C 
ATOM     12  C   LIG d   1       0.067  91.249 118.841  0.00  0.00     0.006 C 
ENDBRANCH   8  11
ENDBRANCH   7   8
ENDBRANCH   1   7
BRANCH   6  13
ATOM     13  N   LIG d   1      -5.775  93.602 119.451  0.00  0.00    -0.311 N 
ATOM     14  C   LIG d   1      -5.930  94.878 119.799  0.00  0.00     0.210 C 
ATOM     15  C   LIG d   1      -5.862  95.151 121.304  0.00  0.00     0.109 C 
ATOM     16  O   LIG d   1      -6.150  95.806 119.005  0.00  0.00    -0.276 OA
ATOM     17  H   LIG d   1      -5.634  92.911 120.161  0.00  0.00     0.149 HD
ENDBRANCH   6  13
BRANCH   5  18
ATOM     18  N   LIG d   1      -8.181  93.779 117.576  0.00  0.00     0.381 N 
ATOM     19  H   LIG d   1      -8.562  93.900 118.493  0.00  0.00    -0.090 HD
ATOM     20  H   LIG d   1      -8.931  93.539 116.952  0.00  0.00    -0.090 HD
ATOM     21  H   LIG d   1      -7.747  94.624 117.275  0.00  0.00    -0.090 HD
ENDBRANCH   5  18
BRANCH   3  22
ATOM     22  C   LIG d   1      -6.296  90.171 115.054  0.00  0.00     0.382 C 
ATOM     23  O   LIG d   1      -7.407  90.055 114.482  0.00  0.00    -0.241 OA
ATOM     24  O   LIG d   1      -5.384  89.364 114.791  0.00  0.00    -0.241 OA
ENDBRANCH   3  22
TORSDOF 7
ENDMDL
MODEL 2
REMARK VINA RESULT:      -4.9     13.988     16.614
REMARK  7 active torsions:
REMARK  status: ('A' for Active; 'I' for Inactive)
REMARK    1  A    between atoms: C_2  and  C_3 
REMARK    2  A    between atoms: C_3  and  O_6 
REMARK    3  A    between atoms: C_3  and  C_4 
REMARK    4  A    between atoms: C_7  and  O_6 
REMARK    5  A    between atoms: C_9  and  C_10 
REMARK    6  A    between atoms: N_15  and  C_14 
REMARK    7  A    between atoms: N_20  and  C_19 
REMARK       I    between atoms: C_22  and  N_20 
ROOT
ATOM      1  C   LIG d   1      -4.832  76.412 117.152  0.00  0.00     0.161 C 
ATOM      2  C   LIG d   1      -5.710  77.349 117.722  0.00  0.00     0.016 C 
ATOM      3  C   LIG d   1      -5.518  78.747 117.637  0.00  0.00     0.038 C 
ATOM      4  C   LIG d   1      -4.509  79.310 116.842  0.00  0.00     0.028 C 
ATOM      5  C   LIG d   1      -3.301  78.398 116.661  0.00  0.00    -0.047 C 
ATOM      6  C   LIG d   1      -3.787  77.009 116.187  0.00  0.00     0.091 C 
ENDROOT
BRANCH   1   7
ATOM      7  O   LIG d   1      -5.584  75.373 116.496  0.00  0.00    -0.368 OA
BRANCH   7   8
ATOM      8  C   LIG d   1      -6.830  75.781 115.878  0.00  0.00     0.119 C 
BRANCH   8   9
ATOM      9  C   LIG d   1      -7.900  74.741 116.262  0.00  0.00     0.028 C 
ATOM     10  C   LIG d   1      -7.286  73.444 116.814  0.00  0.00     0.006 C 
ENDBRANCH   8   9
BRANCH   8  11
ATOM     11  C   LIG d   1      -6.739  75.725 114.350  0.00  0.00     0.028 C 
ATOM     12  C   LIG d   1      -5.555  74.880 113.854  0.00  0.00     0.006 C 
ENDBRANCH   8  11
ENDBRANCH   7   8
ENDBRANCH   1   7
BRANCH   6  13
ATOM     13  N   LIG d   1      -2.675  76.030 116.066  0.00  0.00    -0.311 N 
ATOM     14  C   LIG d   1      -2.032  75.789 114.925  0.00  0.00     0.210 C 
ATOM     15  C   LIG d   1      -0.931  74.727 115.015  0.00  0.00     0.109 C 
ATOM     16  O   LIG d   1      -2.247  76.376 113.854  0.00  0.00    -0.276 OA
ATOM     17  H   LIG d   1      -2.414  75.532 116.894  0.00  0.00     0.149 HD
ENDBRANCH   6  13
BRANCH   5  18
ATOM     18  N   LIG d   1      -2.390  79.050 115.702  0.00  0.00     0.381 N 
ATOM     19  H   LIG d   1      -1.600  78.460 115.530  0.00  0.00    -0.090 HD
ATOM     20  H   LIG d   1      -2.059  79.911 116.101  0.00  0.00    -0.090 HD
ATOM     21  H   LIG d   1      -2.868  79.234 114.848  0.00  0.00    -0.090 HD
ENDBRANCH   5  18
BRANCH   3  22
ATOM     22  C   LIG d   1      -6.318  79.597 118.386  0.00  0.00     0.382 C 
ATOM     23  O   LIG d   1      -5.903  80.740 118.693  0.00  0.00    -0.241 OA
ATOM     24  O   LIG d   1      -7.432  79.218 118.796  0.00  0.00    -0.241 OA
ENDBRANCH   3  22
TORSDOF 7
ENDMDL
MODEL 3
REMARK VINA RESULT:      -4.9     14.939     17.080
REMARK  7 active torsions:
REMARK  status: ('A' for Active; 'I' for Inactive)
REMARK    1  A    between atoms: C_2  and  C_3 
REMARK    2  A    between atoms: C_3  and  O_6 
REMARK    3  A    between atoms: C_3  and  C_4 
REMARK    4  A    between atoms: C_7  and  O_6 
REMARK    5  A    between atoms: C_9  and  C_10 
REMARK    6  A    between atoms: N_15  and  C_14 
REMARK    7  A    between atoms: N_20  and  C_19 
REMARK       I    between atoms: C_22  and  N_20 
ROOT
ATOM      1  C   LIG d   1      -3.712  75.205 116.129  0.00  0.00     0.161 C 
ATOM      2  C   LIG d   1      -2.820  76.061 115.461  0.00  0.00     0.016 C 
ATOM      3  C   LIG d   1      -3.129  76.709 114.243  0.00  0.00     0.038 C 
ATOM      4  C   LIG d   1      -4.415  76.664 113.684  0.00  0.00     0.028 C 
ATOM      5  C   LIG d   1      -5.193  75.407 114.057  0.00  0.00    -0.047 C 
ATOM      6  C   LIG d   1      -5.158  75.232 115.592  0.00  0.00     0.091 C 
ENDROOT
BRANCH   1   7
ATOM      7  O   LIG d   1      -3.697  75.490 117.542  0.00  0.00    -0.368 OA
BRANCH   7   8
ATOM      8  C   LIG d   1      -3.295  76.831 117.917  0.00  0.00     0.119 C 
BRANCH   8   9
ATOM      9  C   LIG d   1      -2.419  76.716 119.180  0.00  0.00     0.028 C 
ATOM     10  C   LIG d   1      -1.102  75.969 118.913  0.00  0.00     0.006 C 
ENDBRANCH   8   9
BRANCH   8  11
ATOM     11  C   LIG d   1      -4.502  77.677 118.337  0.00  0.00     0.028 C 
ATOM     12  C   LIG d   1      -4.999  78.602 117.215  0.00  0.00     0.006 C 
ENDBRANCH   8  11
ENDBRANCH   7   8
ENDBRANCH   1   7
BRANCH   6  13
ATOM     13  N   LIG d   1      -5.825  73.980 116.035  0.00  0.00    -0.311 N 
ATOM     14  C   LIG d   1      -7.096  73.927 116.431  0.00  0.00     0.210 C 
ATOM     15  C   LIG d   1      -7.580  72.540 116.866  0.00  0.00     0.109 C 
ATOM     16  O   LIG d   1      -7.877  74.890 116.432  0.00  0.00    -0.276 OA
ATOM     17  H   LIG d   1      -5.273  73.144 116.036  0.00  0.00     0.149 HD
ENDBRANCH   6  13
BRANCH   5  18
ATOM     18  N   LIG d   1      -6.560  75.554 113.522  0.00  0.00     0.381 N 
ATOM     19  H   LIG d   1      -6.973  74.652 113.395  0.00  0.00    -0.090 HD
ATOM     20  H   LIG d   1      -6.512  76.008 112.627  0.00  0.00    -0.090 HD
ATOM     21  H   LIG d   1      -7.114  76.096 114.149  0.00  0.00    -0.090 HD
ENDBRANCH   5  18
BRANCH   3  22
ATOM     22  C   LIG d   1      -2.133  77.380 113.550  0.00  0.00     0.382 C 
ATOM     23  O   LIG d   1      -1.173  76.741 113.055  0.00  0.00    -0.241 OA
ATOM     24  O   LIG d   1      -2.158  78.622 113.451  0.00  0.00    -0.241 OA
ENDBRANCH   3  22
TORSDOF 7
ENDMDL
MODEL 4
REMARK VINA RESULT:      -4.6     13.535     15.955
REMARK  7 active torsions:
REMARK  status: ('A' for Active; 'I' for Inactive)
REMARK    1  A    between atoms: C_2  and  C_3 
REMARK    2  A    between atoms: C_3  and  O_6 
REMARK    3  A    between atoms: C_3  and  C_4 
REMARK    4  A    between atoms: C_7  and  O_6 
REMARK    5  A    between atoms: C_9  and  C_10 
REMARK    6  A    between atoms: N_15  and  C_14 
REMARK    7  A    between atoms: N_20  and  C_19 
REMARK       I    between atoms: C_22  and  N_20 
ROOT
ATOM      1  C   LIG d   1      -5.920  77.265 117.446  0.00  0.00     0.161 C 
ATOM      2  C   LIG d   1      -6.995  78.168 117.473  0.00  0.00     0.016 C 
ATOM      3  C   LIG d   1      -6.883  79.499 117.937  0.00  0.00     0.038 C 
ATOM      4  C   LIG d   1      -5.643  80.066 118.267  0.00  0.00     0.028 C 
ATOM      5  C   LIG d   1      -4.614  79.043 118.735  0.00  0.00    -0.047 C 
ATOM      6  C   LIG d   1      -4.536  77.899 117.698  0.00  0.00     0.091 C 
ENDROOT
BRANCH   1   7
ATOM      7  O   LIG d   1      -5.919  76.541 116.200  0.00  0.00    -0.368 OA
BRANCH   7   8
ATOM      8  C   LIG d   1      -5.910  75.096 116.301  0.00  0.00     0.119 C 
BRANCH   8   9
ATOM      9  C   LIG d   1      -5.570  74.536 114.907  0.00  0.00     0.028 C 
ATOM     10  C   LIG d   1      -5.998  75.483 113.773  0.00  0.00     0.006 C 
ENDBRANCH   8   9
BRANCH   8  11
ATOM     11  C   LIG d   1      -7.304  74.551 116.628  0.00  0.00     0.028 C 
ATOM     12  C   LIG d   1      -7.333  73.019 116.743  0.00  0.00     0.006 C 
ENDBRANCH   8  11
ENDBRANCH   7   8
ENDBRANCH   1   7
BRANCH   6  13
ATOM     13  N   LIG d   1      -3.613  76.813 118.121  0.00  0.00    -0.311 N 
ATOM     14  C   LIG d   1      -2.336  76.751 117.750  0.00  0.00     0.210 C 
ATOM     15  C   LIG d   1      -1.566  75.538 118.281  0.00  0.00     0.109 C 
ATOM     16  O   LIG d   1      -1.758  77.603 117.058  0.00  0.00    -0.276 OA
ATOM     17  H   LIG d   1      -3.991  76.097 118.709  0.00  0.00     0.149 HD
ENDBRANCH   6  13
BRANCH   5  18
ATOM     18  N   LIG d   1      -3.332  79.750 118.914  0.00  0.00     0.381 N 
ATOM     19  H   LIG d   1      -2.615  79.289 118.389  0.00  0.00    -0.090 HD
ATOM     20  H   LIG d   1      -3.078  79.724 119.886  0.00  0.00    -0.090 HD
ATOM     21  H   LIG d   1      -3.419  80.696 118.611  0.00  0.00    -0.090 HD
ENDBRANCH   5  18
BRANCH   3  22
ATOM     22  C   LIG d   1      -8.025  80.264 118.112  0.00  0.00     0.382 C 
ATOM     23  O   LIG d   1      -8.312  81.162 117.284  0.00  0.00    -0.241 OA
ATOM     24  O   LIG d   1      -8.750  80.098 119.112  0.00  0.00    -0.241 OA
ENDBRANCH   3  22
TORSDOF 7
ENDMDL
MODEL 5
REMARK VINA RESULT:      -4.5     13.927     16.013
REMARK  7 active torsions:
REMARK  status: ('A' for Active; 'I' for Inactive)
REMARK    1  A    between atoms: C_2  and  C_3 
REMARK    2  A    between atoms: C_3  and  O_6 
REMARK    3  A    between atoms: C_3  and  C_4 
REMARK    4  A    between atoms: C_7  and  O_6 
REMARK    5  A    between atoms: C_9  and  C_10 
REMARK    6  A    between atoms: N_15  and  C_14 
REMARK    7  A    between atoms: N_20  and  C_19 
REMARK       I    between atoms: C_22  and  N_20 
ROOT
ATOM      1  C   LIG d   1      -4.169  77.596 116.890  0.00  0.00     0.161 C 
ATOM      2  C   LIG d   1      -5.040  77.130 115.892  0.00  0.00     0.016 C 
ATOM      3  C   LIG d   1      -4.960  75.834 115.332  0.00  0.00     0.038 C 
ATOM      4  C   LIG d   1      -4.092  74.857 115.844  0.00  0.00     0.028 C 
ATOM      5  C   LIG d   1      -2.851  75.440 116.511  0.00  0.00    -0.047 C 
ATOM      6  C   LIG d   1      -3.288  76.508 117.539  0.00  0.00     0.091 C 
ENDROOT
BRANCH   1   7
ATOM      7  O   LIG d   1      -4.916  78.303 117.899  0.00  0.00    -0.368 OA
BRANCH   7   8
ATOM      8  C   LIG d   1      -6.215  78.804 117.497  0.00  0.00     0.119 C 
BRANCH   8   9
ATOM      9  C   LIG d   1      -6.168  80.341 117.590  0.00  0.00     0.028 C 
ATOM     10  C   LIG d   1      -7.550  80.955 117.870  0.00  0.00     0.006 C 
ENDBRANCH   8   9
BRANCH   8  11
ATOM     11  C   LIG d   1      -7.308  78.371 118.480  0.00  0.00     0.028 C 
ATOM     12  C   LIG d   1      -6.750  77.611 119.694  0.00  0.00     0.006 C 
ENDBRANCH   8  11
ENDBRANCH   7   8
ENDBRANCH   1   7
BRANCH   6  13
ATOM     13  N   LIG d   1      -2.130  77.188 118.176  0.00  0.00    -0.311 N 
ATOM     14  C   LIG d   1      -1.942  77.235 119.494  0.00  0.00     0.210 C 
ATOM     15  C   LIG d   1      -0.695  78.004 119.942  0.00  0.00     0.109 C 
ATOM     16  O   LIG d   1      -2.672  76.686 120.333  0.00  0.00    -0.276 OA
ATOM     17  H   LIG d   1      -1.471  77.634 117.568  0.00  0.00     0.149 HD
ENDBRANCH   6  13
BRANCH   5  18
ATOM     18  N   LIG d   1      -2.105  74.322 117.119  0.00  0.00     0.381 N 
ATOM     19  H   LIG d   1      -2.565  73.457 116.915  0.00  0.00    -0.090 HD
ATOM     20  H   LIG d   1      -2.092  74.445 118.116  0.00  0.00    -0.090 HD
ATOM     21  H   LIG d   1      -1.173  74.302 116.767  0.00  0.00    -0.090 HD
ENDBRANCH   5  18
BRANCH   3  22
ATOM     22  C   LIG d   1      -5.727  75.516 114.222  0.00  0.00     0.382 C 
ATOM     23  O   LIG d   1      -5.297  74.693 113.378  0.00  0.00    -0.241 OA
ATOM     24  O   LIG d   1      -6.823  76.075 114.030  0.00  0.00    -0.241 OA
ENDBRANCH   3  22
TORSDOF 7
ENDMDL
MODEL 6
REMARK VINA RESULT:      -4.5     19.510     21.620
REMARK  7 active torsions:
REMARK  status: ('A' for Active; 'I' for Inactive)
REMARK    1  A    between atoms: C_2  and  C_3 
REMARK    2  A    between atoms: C_3  and  O_6 
REMARK    3  A    between atoms: C_3  and  C_4 
REMARK    4  A    between atoms: C_7  and  O_6 
REMARK    5  A    between atoms: C_9  and  C_10 
REMARK    6  A    between atoms: N_15  and  C_14 
REMARK    7  A    between atoms: N_20  and  C_19 
REMARK       I    between atoms: C_22  and  N_20 
ROOT
ATOM      1  C   LIG d   1     -22.827  83.840 115.449  0.00  0.00     0.161 C 
ATOM      2  C   LIG d   1     -22.154  83.081 116.422  0.00  0.00     0.016 C 
ATOM      3  C   LIG d   1     -22.359  83.240 117.811  0.00  0.00     0.038 C 
ATOM      4  C   LIG d   1     -23.369  84.069 118.322  0.00  0.00     0.028 C 
ATOM      5  C   LIG d   1     -23.727  85.228 117.397  0.00  0.00    -0.047 C 
ATOM      6  C   LIG d   1     -24.012  84.671 115.983  0.00  0.00     0.091 C 
ENDROOT
BRANCH   1   7
ATOM      7  O   LIG d   1     -23.260  82.983 114.374  0.00  0.00    -0.368 OA
BRANCH   7   8
ATOM      8  C   LIG d   1     -24.591  82.425 114.501  0.00  0.00     0.119 C 
BRANCH   8   9
ATOM      9  C   LIG d   1     -24.437  80.914 114.761  0.00  0.00     0.028 C 
ATOM     10  C   LIG d   1     -25.075  80.479 116.091  0.00  0.00     0.006 C 
ENDBRANCH   8   9
BRANCH   8  11
ATOM     11  C   LIG d   1     -25.368  82.533 113.185  0.00  0.00     0.028 C 
ATOM     12  C   LIG d   1     -26.891  82.510 113.389  0.00  0.00     0.006 C 
ENDBRANCH   8  11
ENDBRANCH   7   8
ENDBRANCH   1   7
BRANCH   6  13
ATOM     13  N   LIG d   1     -24.288  85.747 114.996  0.00  0.00    -0.311 N 
ATOM     14  C   LIG d   1     -25.516  86.103 114.624  0.00  0.00     0.210 C 
ATOM     15  C   LIG d   1     -25.577  87.221 113.578  0.00  0.00     0.109 C 
ATOM     16  O   LIG d   1     -26.562  85.620 115.083  0.00  0.00    -0.276 OA
ATOM     17  H   LIG d   1     -23.497  86.213 114.596  0.00  0.00     0.149 HD
ENDBRANCH   6  13
BRANCH   5  18
ATOM     18  N   LIG d   1     -24.883  85.928 117.987  0.00  0.00     0.381 N 
ATOM     19  H   LIG d   1     -24.780  86.916 117.863  0.00  0.00    -0.090 HD
ATOM     20  H   LIG d   1     -24.912  85.735 118.973  0.00  0.00    -0.090 HD
ATOM     21  H   LIG d   1     -25.726  85.618 117.556  0.00  0.00    -0.090 HD
ENDBRANCH   5  18
BRANCH   3  22
ATOM     22  C   LIG d   1     -21.522  82.594 118.708  0.00  0.00     0.382 C 
ATOM     23  O   LIG d   1     -22.009  81.907 119.638  0.00  0.00    -0.241 OA
ATOM     24  O   LIG d   1     -20.286  82.725 118.625  0.00  0.00    -0.241 OA
ENDBRANCH   3  22
TORSDOF 7
ENDMDL
MODEL 7
REMARK VINA RESULT:      -4.5     19.327     21.317
REMARK  7 active torsions:
REMARK  status: ('A' for Active; 'I' for Inactive)
REMARK    1  A    between atoms: C_2  and  C_3 
REMARK    2  A    between atoms: C_3  and  O_6 
REMARK    3  A    between atoms: C_3  and  C_4 
REMARK    4  A    between atoms: C_7  and  O_6 
REMARK    5  A    between atoms: C_9  and  C_10 
REMARK    6  A    between atoms: N_15  and  C_14 
REMARK    7  A    between atoms: N_20  and  C_19 
REMARK       I    between atoms: C_22  and  N_20 
ROOT
ATOM      1  C   LIG d   1     -23.540  83.240 115.273  0.00  0.00     0.161 C 
ATOM      2  C   LIG d   1     -22.676  84.303 114.961  0.00  0.00     0.016 C 
ATOM      3  C   LIG d   1     -23.123  85.548 114.462  0.00  0.00     0.038 C 
ATOM      4  C   LIG d   1     -24.486  85.870 114.384  0.00  0.00     0.028 C 
ATOM      5  C   LIG d   1     -25.387  84.651 114.211  0.00  0.00    -0.047 C 
ATOM      6  C   LIG d   1     -25.038  83.611 115.299  0.00  0.00     0.091 C 
ENDROOT
BRANCH   1   7
ATOM      7  O   LIG d   1     -23.149  82.645 116.527  0.00  0.00    -0.368 OA
BRANCH   7   8
ATOM      8  C   LIG d   1     -22.392  83.492 117.426  0.00  0.00     0.119 C 
BRANCH   8   9
ATOM      9  C   LIG d   1     -21.347  82.604 118.128  0.00  0.00     0.028 C 
ATOM     10  C   LIG d   1     -21.933  81.852 119.336  0.00  0.00     0.006 C 
ENDBRANCH   8   9
BRANCH   8  11
ATOM     11  C   LIG d   1     -23.276  84.044 118.548  0.00  0.00     0.028 C 
ATOM     12  C   LIG d   1     -23.552  85.549 118.404  0.00  0.00     0.006 C 
ENDBRANCH   8  11
ENDBRANCH   7   8
ENDBRANCH   1   7
BRANCH   6  13
ATOM     13  N   LIG d   1     -25.815  82.352 115.151  0.00  0.00    -0.311 N 
ATOM     14  C   LIG d   1     -25.788  81.600 114.052  0.00  0.00     0.210 C 
ATOM     15  C   LIG d   1     -26.679  80.354 114.100  0.00  0.00     0.109 C 
ATOM     16  O   LIG d   1     -25.087  81.828 113.055  0.00  0.00    -0.276 OA
ATOM     17  H   LIG d   1     -26.387  82.076 115.925  0.00  0.00     0.149 HD
ENDBRANCH   6  13
BRANCH   5  18
ATOM     18  N   LIG d   1     -26.785  85.116 114.282  0.00  0.00     0.381 N 
ATOM     19  H   LIG d   1     -27.401  84.330 114.331  0.00  0.00    -0.090 HD
ATOM     20  H   LIG d   1     -26.998  85.633 113.447  0.00  0.00    -0.090 HD
ATOM     21  H   LIG d   1     -26.911  85.696 115.082  0.00  0.00    -0.090 HD
ENDBRANCH   5  18
BRANCH   3  22
ATOM     22  C   LIG d   1     -22.200  86.473 113.997  0.00  0.00     0.382 C 
ATOM     23  O   LIG d   1     -21.403  86.158 113.082  0.00  0.00    -0.241 OA
ATOM     24  O   LIG d   1     -22.126  87.605 114.513  0.00  0.00    -0.241 OA
ENDBRANCH   3  22
TORSDOF 7
ENDMDL
MODEL 8
REMARK VINA RESULT:      -4.4      2.358      4.286
REMARK  7 active torsions:
REMARK  status: ('A' for Active; 'I' for Inactive)
REMARK    1  A    between atoms: C_2  and  C_3 
REMARK    2  A    between atoms: C_3  and  O_6 
REMARK    3  A    between atoms: C_3  and  C_4 
REMARK    4  A    between atoms: C_7  and  O_6 
REMARK    5  A    between atoms: C_9  and  C_10 
REMARK    6  A    between atoms: N_15  and  C_14 
REMARK    7  A    between atoms: N_20  and  C_19 
REMARK       I    between atoms: C_22  and  N_20 
ROOT
ATOM      1  C   LIG d   1      -4.985  92.859 118.656  0.00  0.00     0.161 C 
ATOM      2  C   LIG d   1      -5.973  92.829 117.658  0.00  0.00     0.016 C 
ATOM      3  C   LIG d   1      -5.943  91.940 116.559  0.00  0.00     0.038 C 
ATOM      4  C   LIG d   1      -4.995  90.910 116.465  0.00  0.00     0.028 C 
ATOM      5  C   LIG d   1      -3.687  91.224 117.184  0.00  0.00    -0.047 C 
ATOM      6  C   LIG d   1      -4.003  91.670 118.629  0.00  0.00     0.091 C 
ENDROOT
BRANCH   1   7
ATOM      7  O   LIG d   1      -5.604  92.970 119.953  0.00  0.00    -0.368 OA
BRANCH   7   8
ATOM      8  C   LIG d   1      -5.283  94.160 120.713  0.00  0.00     0.119 C 
BRANCH   8   9
ATOM      9  C   LIG d   1      -6.614  94.807 121.144  0.00  0.00     0.028 C 
ATOM     10  C   LIG d   1      -7.325  95.517 119.981  0.00  0.00     0.006 C 
ENDBRANCH   8   9
BRANCH   8  11
ATOM     11  C   LIG d   1      -4.587  95.208 119.840  0.00  0.00     0.028 C 
ATOM     12  C   LIG d   1      -3.189  95.582 120.358  0.00  0.00     0.006 C 
ENDBRANCH   8  11
ENDBRANCH   7   8
ENDBRANCH   1   7
BRANCH   6  13
ATOM     13  N   LIG d   1      -2.784  92.076 119.377  0.00  0.00    -0.311 N 
ATOM     14  C   LIG d   1      -2.084  91.244 120.145  0.00  0.00     0.210 C 
ATOM     15  C   LIG d   1      -0.873  91.872 120.842  0.00  0.00     0.109 C 
ATOM     16  O   LIG d   1      -2.331  90.037 120.289  0.00  0.00    -0.276 OA
ATOM     17  H   LIG d   1      -2.494  93.030 119.291  0.00  0.00     0.149 HD
ENDBRANCH   6  13
BRANCH   5  18
ATOM     18  N   LIG d   1      -2.844  90.015 117.123  0.00  0.00     0.381 N 
ATOM     19  H   LIG d   1      -3.413  89.199 117.238  0.00  0.00    -0.090 HD
ATOM     20  H   LIG d   1      -2.179  90.044 117.875  0.00  0.00    -0.090 HD
ATOM     21  H   LIG d   1      -2.367  89.975 116.249  0.00  0.00    -0.090 HD
ENDBRANCH   5  18
BRANCH   3  22
ATOM     22  C   LIG d   1      -6.846  92.101 115.519  0.00  0.00     0.382 C 
ATOM     23  O   LIG d   1      -6.429  92.297 114.352  0.00  0.00    -0.241 OA
ATOM     24  O   LIG d   1      -8.072  92.097 115.741  0.00  0.00    -0.241 OA
ENDBRANCH   3  22
TORSDOF 7
ENDMDL
MODEL 9
REMARK VINA RESULT:      -4.4     27.668     30.403
REMARK  7 active torsions:
REMARK  status: ('A' for Active; 'I' for Inactive)
REMARK    1  A    between atoms: C_2  and  C_3 
REMARK    2  A    between atoms: C_3  and  O_6 
REMARK    3  A    between atoms: C_3  and  C_4 
REMARK    4  A    between atoms: C_7  and  O_6 
REMARK    5  A    between atoms: C_9  and  C_10 
REMARK    6  A    between atoms: N_15  and  C_14 
REMARK    7  A    between atoms: N_20  and  C_19 
REMARK       I    between atoms: C_22  and  N_20 
ROOT
ATOM      1  C   LIG d   1     -16.134  64.861 116.816  0.00  0.00     0.161 C 
ATOM      2  C   LIG d   1     -16.258  66.260 116.782  0.00  0.00     0.016 C 
ATOM      3  C   LIG d   1     -15.822  67.105 117.828  0.00  0.00     0.038 C 
ATOM      4  C   LIG d   1     -15.090  66.616 118.920  0.00  0.00     0.028 C 
ATOM      5  C   LIG d   1     -15.383  65.155 119.241  0.00  0.00    -0.047 C 
ATOM      6  C   LIG d   1     -15.237  64.318 117.949  0.00  0.00     0.091 C 
ENDROOT
BRANCH   1   7
ATOM      7  O   LIG d   1     -15.672  64.380 115.538  0.00  0.00    -0.368 OA
BRANCH   7   8
ATOM      8  C   LIG d   1     -16.568  63.489 114.830  0.00  0.00     0.119 C 
BRANCH   8   9
ATOM      9  C   LIG d   1     -16.826  64.100 113.439  0.00  0.00     0.028 C 
ATOM     10  C   LIG d   1     -18.223  64.734 113.327  0.00  0.00     0.006 C 
ENDBRANCH   8   9
BRANCH   8  11
ATOM     11  C   LIG d   1     -17.941  63.426 115.507  0.00  0.00     0.028 C 
ATOM     12  C   LIG d   1     -18.339  62.000 115.916  0.00  0.00     0.006 C 
ENDBRANCH   8  11
ENDBRANCH   7   8
ENDBRANCH   1   7
BRANCH   6  13
ATOM     13  N   LIG d   1     -15.589  62.889 118.156  0.00  0.00    -0.311 N 
ATOM     14  C   LIG d   1     -14.762  61.883 117.880  0.00  0.00     0.210 C 
ATOM     15  C   LIG d   1     -15.330  60.486 118.149  0.00  0.00     0.109 C 
ATOM     16  O   LIG d   1     -13.599  62.016 117.469  0.00  0.00    -0.276 OA
ATOM     17  H   LIG d   1     -16.503  62.692 118.516  0.00  0.00     0.149 HD
ENDBRANCH   6  13
BRANCH   5  18
ATOM     18  N   LIG d   1     -14.454  64.737 120.307  0.00  0.00     0.381 N 
ATOM     19  H   LIG d   1     -14.656  65.240 121.149  0.00  0.00    -0.090 HD
ATOM     20  H   LIG d   1     -13.515  64.959 120.026  0.00  0.00    -0.090 HD
ATOM     21  H   LIG d   1     -14.538  63.758 120.469  0.00  0.00    -0.090 HD
ENDBRANCH   5  18
BRANCH   3  22
ATOM     22  C   LIG d   1     -16.153  68.451 117.807  0.00  0.00     0.382 C 
ATOM     23  O   LIG d   1     -16.222  69.063 116.713  0.00  0.00    -0.241 OA
ATOM     24  O   LIG d   1     -16.341  69.073 118.870  0.00  0.00    -0.241 OA
ENDBRANCH   3  22
TORSDOF 7
ENDMDL
