MODEL 1
REMARK VINA RESULT:      -5.6      0.000      0.000
REMARK  7 active torsions:
REMARK  status: ('A' for Active; 'I' for Inactive)
REMARK    1  A    between atoms: C_2  and  C_3 
REMARK    2  A    between atoms: C_3  and  O_6 
REMARK    3  A    between atoms: C_3  and  C_4 
REMARK    4  A    between atoms: C_7  and  O_6 
REMARK    5  A    between atoms: C_9  and  C_10 
REMARK    6  A    between atoms: N_15  and  C_14 
REMARK    7  A    between atoms: N_20  and  C_19 
REMARK       I    between atoms: C_22  and  N_20 
ROOT
ATOM      1  C   LIG d   1      -6.679  75.414 116.812  0.00  0.00     0.161 C 
ATOM      2  C   LIG d   1      -7.563  74.330 116.681  0.00  0.00     0.016 C 
ATOM      3  C   LIG d   1      -7.136  72.998 116.479  0.00  0.00     0.038 C 
ATOM      4  C   LIG d   1      -5.782  72.635 116.544  0.00  0.00     0.028 C 
ATOM      5  C   LIG d   1      -4.833  73.768 116.171  0.00  0.00    -0.047 C 
ATOM      6  C   LIG d   1      -5.198  75.022 116.998  0.00  0.00     0.091 C 
ENDROOT
BRANCH   1   7
ATOM      7  O   LIG d   1      -7.110  76.268 117.890  0.00  0.00    -0.368 OA
BRANCH   7   8
ATOM      8  C   LIG d   1      -7.601  77.577 117.509  0.00  0.00     0.119 C 
BRANCH   8   9
ATOM      9  C   LIG d   1      -6.796  78.623 118.304  0.00  0.00     0.028 C 
ATOM     10  C   LIG d   1      -5.853  79.444 117.408  0.00  0.00     0.006 C 
ENDBRANCH   8   9
BRANCH   8  11
ATOM     11  C   LIG d   1      -9.057  77.773 117.939  0.00  0.00     0.028 C 
ATOM     12  C   LIG d   1      -9.396  79.240 118.245  0.00  0.00     0.006 C 
ENDBRANCH   8  11
ENDBRANCH   7   8
ENDBRANCH   1   7
BRANCH   6  13
ATOM     13  N   LIG d   1      -4.371  76.202 116.633  0.00  0.00    -0.311 N 
ATOM     14  C   LIG d   1      -3.255  76.541 117.275  0.00  0.00     0.210 C 
ATOM     15  C   LIG d   1      -2.566  77.805 116.751  0.00  0.00     0.109 C 
ATOM     16  O   LIG d   1      -2.752  75.898 118.209  0.00  0.00    -0.276 OA
ATOM     17  H   LIG d   1      -4.689  76.762 115.867  0.00  0.00     0.149 HD
ENDBRANCH   6  13
BRANCH   5  18
ATOM     18  N   LIG d   1      -3.457  73.295 116.415  0.00  0.00     0.381 N 
ATOM     19  H   LIG d   1      -3.329  72.395 115.998  0.00  0.00    -0.090 HD
ATOM     20  H   LIG d   1      -3.315  73.206 117.406  0.00  0.00    -0.090 HD
ATOM     21  H   LIG d   1      -2.801  73.942 116.035  0.00  0.00    -0.090 HD
ENDBRANCH   5  18
BRANCH   3  22
ATOM     22  C   LIG d   1      -8.066  72.018 116.167  0.00  0.00     0.382 C 
ATOM     23  O   LIG d   1      -7.695  70.955 115.612  0.00  0.00    -0.241 OA
ATOM     24  O   LIG d   1      -9.277  72.201 116.394  0.00  0.00    -0.241 OA
ENDBRANCH   3  22
TORSDOF 7
ENDMDL
MODEL 2
REMARK VINA RESULT:      -5.6      2.010      5.156
REMARK  7 active torsions:
REMARK  status: ('A' for Active; 'I' for Inactive)
REMARK    1  A    between atoms: C_2  and  C_3 
REMARK    2  A    between atoms: C_3  and  O_6 
REMARK    3  A    between atoms: C_3  and  C_4 
REMARK    4  A    between atoms: C_7  and  O_6 
REMARK    5  A    between atoms: C_9  and  C_10 
REMARK    6  A    between atoms: N_15  and  C_14 
REMARK    7  A    between atoms: N_20  and  C_19 
REMARK       I    between atoms: C_22  and  N_20 
ROOT
ATOM      1  C   LIG d   1      -6.879  75.968 117.226  0.00  0.00     0.161 C 
ATOM      2  C   LIG d   1      -8.071  76.525 117.718  0.00  0.00     0.016 C 
ATOM      3  C   LIG d   1      -8.243  77.908 117.957  0.00  0.00     0.038 C 
ATOM      4  C   LIG d   1      -7.278  78.852 117.576  0.00  0.00     0.028 C 
ATOM      5  C   LIG d   1      -5.861  78.290 117.543  0.00  0.00    -0.047 C 
ATOM      6  C   LIG d   1      -5.854  76.995 116.700  0.00  0.00     0.091 C 
ENDROOT
BRANCH   1   7
ATOM      7  O   LIG d   1      -7.178  74.992 116.208  0.00  0.00    -0.368 OA
BRANCH   7   8
ATOM      8  C   LIG d   1      -7.198  73.609 116.638  0.00  0.00     0.119 C 
BRANCH   8   9
ATOM      9  C   LIG d   1      -6.234  72.827 115.725  0.00  0.00     0.028 C 
ATOM     10  C   LIG d   1      -5.626  73.709 114.621  0.00  0.00     0.006 C 
ENDBRANCH   8   9
BRANCH   8  11
ATOM     11  C   LIG d   1      -8.574  72.975 116.413  0.00  0.00     0.028 C 
ATOM     12  C   LIG d   1      -8.491  71.479 116.069  0.00  0.00     0.006 C 
ENDBRANCH   8  11
ENDBRANCH   7   8
ENDBRANCH   1   7
BRANCH   6  13
ATOM     13  N   LIG d   1      -4.523  76.335 116.686  0.00  0.00    -0.311 N 
ATOM     14  C   LIG d   1      -3.611  76.544 115.738  0.00  0.00     0.210 C 
ATOM     15  C   LIG d   1      -2.312  75.747 115.903  0.00  0.00     0.109 C 
ATOM     16  O   LIG d   1      -3.741  77.337 114.794  0.00  0.00    -0.276 OA
ATOM     17  H   LIG d   1      -4.321  75.698 117.432  0.00  0.00     0.149 HD
ENDBRANCH   6  13
BRANCH   5  18
ATOM     18  N   LIG d   1      -4.978  79.339 116.998  0.00  0.00     0.381 N 
ATOM     19  H   LIG d   1      -4.837  80.053 117.684  0.00  0.00    -0.090 HD
ATOM     20  H   LIG d   1      -5.422  79.754 116.198  0.00  0.00    -0.090 HD
ATOM     21  H   LIG d   1      -4.102  78.945 116.734  0.00  0.00    -0.090 HD
ENDBRANCH   5  18
BRANCH   3  22
ATOM     22  C   LIG d   1      -9.375  78.355 118.621  0.00  0.00     0.382 C 
ATOM     23  O   LIG d   1     -10.098  79.240 118.103  0.00  0.00    -0.241 OA
ATOM     24  O   LIG d   1      -9.659  77.916 119.752  0.00  0.00    -0.241 OA
ENDBRANCH   3  22
TORSDOF 7
ENDMDL
MODEL 3
REMARK VINA RESULT:      -5.6      3.678      6.109
REMARK  7 active torsions:
REMARK  status: ('A' for Active; 'I' for Inactive)
REMARK    1  A    between atoms: C_2  and  C_3 
REMARK    2  A    between atoms: C_3  and  O_6 
REMARK    3  A    between atoms: C_3  and  C_4 
REMARK    4  A    between atoms: C_7  and  O_6 
REMARK    5  A    between atoms: C_9  and  C_10 
REMARK    6  A    between atoms: N_15  and  C_14 
REMARK    7  A    between atoms: N_20  and  C_19 
REMARK       I    between atoms: C_22  and  N_20 
ROOT
ATOM      1  C   LIG d   1      -2.575  73.829 116.261  0.00  0.00     0.161 C 
ATOM      2  C   LIG d   1      -2.951  74.732 117.269  0.00  0.00     0.016 C 
ATOM      3  C   LIG d   1      -2.079  75.708 117.804  0.00  0.00     0.038 C 
ATOM      4  C   LIG d   1      -0.811  75.950 117.255  0.00  0.00     0.028 C 
ATOM      5  C   LIG d   1      -0.204  74.729 116.573  0.00  0.00    -0.047 C 
ATOM      6  C   LIG d   1      -1.231  74.150 115.573  0.00  0.00     0.091 C 
ENDROOT
BRANCH   1   7
ATOM      7  O   LIG d   1      -3.627  73.725 115.281  0.00  0.00    -0.368 OA
BRANCH   7   8
ATOM      8  C   LIG d   1      -4.837  74.471 115.564  0.00  0.00     0.119 C 
BRANCH   8   9
ATOM      9  C   LIG d   1      -6.031  73.536 115.290  0.00  0.00     0.028 C 
ATOM     10  C   LIG d   1      -6.261  72.529 116.429  0.00  0.00     0.006 C 
ENDBRANCH   8   9
BRANCH   8  11
ATOM     11  C   LIG d   1      -5.009  75.643 114.593  0.00  0.00     0.028 C 
ATOM     12  C   LIG d   1      -6.472  75.861 114.175  0.00  0.00     0.006 C 
ENDBRANCH   8  11
ENDBRANCH   7   8
ENDBRANCH   1   7
BRANCH   6  13
ATOM     13  N   LIG d   1      -0.750  72.903 114.923  0.00  0.00    -0.311 N 
ATOM     14  C   LIG d   1      -0.146  72.881 113.736  0.00  0.00     0.210 C 
ATOM     15  C   LIG d   1       0.253  71.488 113.239  0.00  0.00     0.109 C 
ATOM     16  O   LIG d   1       0.125  73.887 113.062  0.00  0.00    -0.276 OA
ATOM     17  H   LIG d   1      -0.901  72.044 115.415  0.00  0.00     0.149 HD
ENDBRANCH   6  13
BRANCH   5  18
ATOM     18  N   LIG d   1       1.052  75.157 115.928  0.00  0.00     0.381 N 
ATOM     19  H   LIG d   1       1.588  74.354 115.665  0.00  0.00    -0.090 HD
ATOM     20  H   LIG d   1       1.589  75.693 116.586  0.00  0.00    -0.090 HD
ATOM     21  H   LIG d   1       0.851  75.709 115.124  0.00  0.00    -0.090 HD
ENDBRANCH   5  18
BRANCH   3  22
ATOM     22  C   LIG d   1      -2.460  76.430 118.925  0.00  0.00     0.382 C 
ATOM     23  O   LIG d   1      -3.022  75.848 119.884  0.00  0.00    -0.241 OA
ATOM     24  O   LIG d   1      -2.289  77.663 118.971  0.00  0.00    -0.241 OA
ENDBRANCH   3  22
TORSDOF 7
ENDMDL
MODEL 4
REMARK VINA RESULT:      -5.4      2.291      4.624
REMARK  7 active torsions:
REMARK  status: ('A' for Active; 'I' for Inactive)
REMARK    1  A    between atoms: C_2  and  C_3 
REMARK    2  A    between atoms: C_3  and  O_6 
REMARK    3  A    between atoms: C_3  and  C_4 
REMARK    4  A    between atoms: C_7  and  O_6 
REMARK    5  A    between atoms: C_9  and  C_10 
REMARK    6  A    between atoms: N_15  and  C_14 
REMARK    7  A    between atoms: N_20  and  C_19 
REMARK       I    between atoms: C_22  and  N_20 
ROOT
ATOM      1  C   LIG d   1      -4.836  74.219 116.582  0.00  0.00     0.161 C 
ATOM      2  C   LIG d   1      -5.552  73.031 116.359  0.00  0.00     0.016 C 
ATOM      3  C   LIG d   1      -6.964  72.964 116.343  0.00  0.00     0.038 C 
ATOM      4  C   LIG d   1      -7.761  74.117 116.399  0.00  0.00     0.028 C 
ATOM      5  C   LIG d   1      -7.096  75.279 117.129  0.00  0.00    -0.047 C 
ATOM      6  C   LIG d   1      -5.688  75.505 116.533  0.00  0.00     0.091 C 
ENDROOT
BRANCH   1   7
ATOM      7  O   LIG d   1      -3.739  74.310 115.652  0.00  0.00    -0.368 OA
BRANCH   7   8
ATOM      8  C   LIG d   1      -2.475  73.764 116.103  0.00  0.00     0.119 C 
BRANCH   8   9
ATOM      9  C   LIG d   1      -2.201  74.332 117.509  0.00  0.00     0.028 C 
ATOM     10  C   LIG d   1      -1.239  75.532 117.481  0.00  0.00     0.006 C 
ENDBRANCH   8   9
BRANCH   8  11
ATOM     11  C   LIG d   1      -1.313  74.256 115.234  0.00  0.00     0.028 C 
ATOM     12  C   LIG d   1      -0.411  73.113 114.743  0.00  0.00     0.006 C 
ENDBRANCH   8  11
ENDBRANCH   7   8
ENDBRANCH   1   7
BRANCH   6  13
ATOM     13  N   LIG d   1      -4.935  76.570 117.247  0.00  0.00    -0.311 N 
ATOM     14  C   LIG d   1      -4.266  77.538 116.623  0.00  0.00     0.210 C 
ATOM     15  C   LIG d   1      -3.542  78.523 117.547  0.00  0.00     0.109 C 
ATOM     16  O   LIG d   1      -4.230  77.694 115.393  0.00  0.00    -0.276 OA
ATOM     17  H   LIG d   1      -4.937  76.538 118.247  0.00  0.00     0.149 HD
ENDBRANCH   6  13
BRANCH   5  18
ATOM     18  N   LIG d   1      -7.977  76.454 116.992  0.00  0.00     0.381 N 
ATOM     19  H   LIG d   1      -8.003  76.961 117.854  0.00  0.00    -0.090 HD
ATOM     20  H   LIG d   1      -8.908  76.140 116.783  0.00  0.00    -0.090 HD
ATOM     21  H   LIG d   1      -7.647  77.045 116.261  0.00  0.00    -0.090 HD
ENDBRANCH   5  18
BRANCH   3  22
ATOM     22  C   LIG d   1      -7.593  71.729 116.311  0.00  0.00     0.382 C 
ATOM     23  O   LIG d   1      -6.922  70.680 116.458  0.00  0.00    -0.241 OA
ATOM     24  O   LIG d   1      -8.817  71.649 116.092  0.00  0.00    -0.241 OA
ENDBRANCH   3  22
TORSDOF 7
ENDMDL
MODEL 5
REMARK VINA RESULT:      -5.4      1.272      2.063
REMARK  7 active torsions:
REMARK  status: ('A' for Active; 'I' for Inactive)
REMARK    1  A    between atoms: C_2  and  C_3 
REMARK    2  A    between atoms: C_3  and  O_6 
REMARK    3  A    between atoms: C_3  and  C_4 
REMARK    4  A    between atoms: C_7  and  O_6 
REMARK    5  A    between atoms: C_9  and  C_10 
REMARK    6  A    between atoms: N_15  and  C_14 
REMARK    7  A    between atoms: N_20  and  C_19 
REMARK       I    between atoms: C_22  and  N_20 
ROOT
ATOM      1  C   LIG d   1      -5.923  75.406 115.184  0.00  0.00     0.161 C 
ATOM      2  C   LIG d   1      -6.871  74.389 115.385  0.00  0.00     0.016 C 
ATOM      3  C   LIG d   1      -6.557  73.135 115.958  0.00  0.00     0.038 C 
ATOM      4  C   LIG d   1      -5.297  72.868 116.513  0.00  0.00     0.028 C 
ATOM      5  C   LIG d   1      -4.172  73.679 115.879  0.00  0.00    -0.047 C 
ATOM      6  C   LIG d   1      -4.567  75.174 115.884  0.00  0.00     0.091 C 
ENDROOT
BRANCH   1   7
ATOM      7  O   LIG d   1      -6.479  76.676 115.577  0.00  0.00    -0.368 OA
BRANCH   7   8
ATOM      8  C   LIG d   1      -6.578  76.915 117.003  0.00  0.00     0.119 C 
BRANCH   8   9
ATOM      9  C   LIG d   1      -8.013  76.554 117.434  0.00  0.00     0.028 C 
ATOM     10  C   LIG d   1      -8.760  77.751 118.045  0.00  0.00     0.006 C 
ENDBRANCH   8   9
BRANCH   8  11
ATOM     11  C   LIG d   1      -6.418  78.402 117.331  0.00  0.00     0.028 C 
ATOM     12  C   LIG d   1      -4.963  78.884 117.219  0.00  0.00     0.006 C 
ENDBRANCH   8  11
ENDBRANCH   7   8
ENDBRANCH   1   7
BRANCH   6  13
ATOM     13  N   LIG d   1      -3.559  76.029 115.206  0.00  0.00    -0.311 N 
ATOM     14  C   LIG d   1      -2.522  76.580 115.835  0.00  0.00     0.210 C 
ATOM     15  C   LIG d   1      -1.614  77.442 114.953  0.00  0.00     0.109 C 
ATOM     16  O   LIG d   1      -2.250  76.409 117.033  0.00  0.00    -0.276 OA
ATOM     17  H   LIG d   1      -3.685  76.194 114.226  0.00  0.00     0.149 HD
ENDBRANCH   6  13
BRANCH   5  18
ATOM     18  N   LIG d   1      -2.940  73.405 116.642  0.00  0.00     0.381 N 
ATOM     19  H   LIG d   1      -2.993  73.842 117.541  0.00  0.00    -0.090 HD
ATOM     20  H   LIG d   1      -2.157  73.796 116.148  0.00  0.00    -0.090 HD
ATOM     21  H   LIG d   1      -2.817  72.422 116.750  0.00  0.00    -0.090 HD
ENDBRANCH   5  18
BRANCH   3  22
ATOM     22  C   LIG d   1      -7.500  72.119 115.945  0.00  0.00     0.382 C 
ATOM     23  O   LIG d   1      -8.678  72.351 116.310  0.00  0.00    -0.241 OA
ATOM     24  O   LIG d   1      -7.177  70.962 115.616  0.00  0.00    -0.241 OA
ENDBRANCH   3  22
TORSDOF 7
ENDMDL
MODEL 6
REMARK VINA RESULT:      -5.3      2.419      4.665
REMARK  7 active torsions:
REMARK  status: ('A' for Active; 'I' for Inactive)
REMARK    1  A    between atoms: C_2  and  C_3 
REMARK    2  A    between atoms: C_3  and  O_6 
REMARK    3  A    between atoms: C_3  and  C_4 
REMARK    4  A    between atoms: C_7  and  O_6 
REMARK    5  A    between atoms: C_9  and  C_10 
REMARK    6  A    between atoms: N_15  and  C_14 
REMARK    7  A    between atoms: N_20  and  C_19 
REMARK       I    between atoms: C_22  and  N_20 
ROOT
ATOM      1  C   LIG d   1      -4.668  75.705 115.780  0.00  0.00     0.161 C 
ATOM      2  C   LIG d   1      -3.811  74.599 115.656  0.00  0.00     0.016 C 
ATOM      3  C   LIG d   1      -2.758  74.325 116.560  0.00  0.00     0.038 C 
ATOM      4  C   LIG d   1      -2.586  75.060 117.742  0.00  0.00     0.028 C 
ATOM      5  C   LIG d   1      -3.112  76.489 117.649  0.00  0.00    -0.047 C 
ATOM      6  C   LIG d   1      -4.565  76.455 117.124  0.00  0.00     0.091 C 
ENDROOT
BRANCH   1   7
ATOM      7  O   LIG d   1      -6.029  75.298 115.536  0.00  0.00    -0.368 OA
BRANCH   7   8
ATOM      8  C   LIG d   1      -6.588  74.347 116.475  0.00  0.00     0.119 C 
BRANCH   8   9
ATOM      9  C   LIG d   1      -6.650  72.979 115.768  0.00  0.00     0.028 C 
ATOM     10  C   LIG d   1      -7.849  72.134 116.230  0.00  0.00     0.006 C 
ENDBRANCH   8   9
BRANCH   8  11
ATOM     11  C   LIG d   1      -8.040  74.692 116.820  0.00  0.00     0.028 C 
ATOM     12  C   LIG d   1      -8.340  76.194 116.698  0.00  0.00     0.006 C 
ENDBRANCH   8  11
ENDBRANCH   7   8
ENDBRANCH   1   7
BRANCH   6  13
ATOM     13  N   LIG d   1      -5.127  77.816 116.923  0.00  0.00    -0.311 N 
ATOM     14  C   LIG d   1      -5.813  78.472 117.858  0.00  0.00     0.210 C 
ATOM     15  C   LIG d   1      -6.320  79.855 117.438  0.00  0.00     0.109 C 
ATOM     16  O   LIG d   1      -6.022  78.052 119.007  0.00  0.00    -0.276 OA
ATOM     17  H   LIG d   1      -4.977  78.244 116.031  0.00  0.00     0.149 HD
ENDBRANCH   6  13
BRANCH   5  18
ATOM     18  N   LIG d   1      -2.994  77.095 118.988  0.00  0.00     0.381 N 
ATOM     19  H   LIG d   1      -2.458  76.497 119.585  0.00  0.00    -0.090 HD
ATOM     20  H   LIG d   1      -3.913  77.192 119.383  0.00  0.00    -0.090 HD
ATOM     21  H   LIG d   1      -2.557  77.988 118.921  0.00  0.00    -0.090 HD
ENDBRANCH   5  18
BRANCH   3  22
ATOM     22  C   LIG d   1      -1.840  73.329 116.263  0.00  0.00     0.382 C 
ATOM     23  O   LIG d   1      -1.285  72.692 117.191  0.00  0.00    -0.241 OA
ATOM     24  O   LIG d   1      -1.526  73.091 115.082  0.00  0.00    -0.241 OA
ENDBRANCH   3  22
TORSDOF 7
ENDMDL
MODEL 7
REMARK VINA RESULT:      -5.2      2.040      4.882
REMARK  7 active torsions:
REMARK  status: ('A' for Active; 'I' for Inactive)
REMARK    1  A    between atoms: C_2  and  C_3 
REMARK    2  A    between atoms: C_3  and  O_6 
REMARK    3  A    between atoms: C_3  and  C_4 
REMARK    4  A    between atoms: C_7  and  O_6 
REMARK    5  A    between atoms: C_9  and  C_10 
REMARK    6  A    between atoms: N_15  and  C_14 
REMARK    7  A    between atoms: N_20  and  C_19 
REMARK       I    between atoms: C_22  and  N_20 
ROOT
ATOM      1  C   LIG d   1      -5.824  75.693 118.093  0.00  0.00     0.161 C 
ATOM      2  C   LIG d   1      -7.140  76.141 118.296  0.00  0.00     0.016 C 
ATOM      3  C   LIG d   1      -7.551  77.475 118.071  0.00  0.00     0.038 C 
ATOM      4  C   LIG d   1      -6.703  78.422 117.478  0.00  0.00     0.028 C 
ATOM      5  C   LIG d   1      -5.223  78.149 117.725  0.00  0.00    -0.047 C 
ATOM      6  C   LIG d   1      -4.912  76.685 117.341  0.00  0.00     0.091 C 
ENDROOT
BRANCH   1   7
ATOM      7  O   LIG d   1      -5.841  74.418 117.420  0.00  0.00    -0.368 OA
BRANCH   7   8
ATOM      8  C   LIG d   1      -6.789  74.284 116.333  0.00  0.00     0.119 C 
BRANCH   8   9
ATOM      9  C   LIG d   1      -7.506  72.932 116.509  0.00  0.00     0.028 C 
ATOM     10  C   LIG d   1      -6.885  71.821 115.645  0.00  0.00     0.006 C 
ENDBRANCH   8   9
BRANCH   8  11
ATOM     11  C   LIG d   1      -6.077  74.192 114.980  0.00  0.00     0.028 C 
ATOM     12  C   LIG d   1      -6.128  75.509 114.189  0.00  0.00     0.006 C 
ENDBRANCH   8  11
ENDBRANCH   7   8
ENDBRANCH   1   7
BRANCH   6  13
ATOM     13  N   LIG d   1      -3.504  76.309 117.632  0.00  0.00    -0.311 N 
ATOM     14  C   LIG d   1      -2.651  75.885 116.701  0.00  0.00     0.210 C 
ATOM     15  C   LIG d   1      -1.253  75.532 117.217  0.00  0.00     0.109 C 
ATOM     16  O   LIG d   1      -2.910  75.799 115.491  0.00  0.00    -0.276 OA
ATOM     17  H   LIG d   1      -3.200  76.380 118.583  0.00  0.00     0.149 HD
ENDBRANCH   6  13
BRANCH   5  18
ATOM     18  N   LIG d   1      -4.452  79.130 116.939  0.00  0.00     0.381 N 
ATOM     19  H   LIG d   1      -4.518  80.033 117.364  0.00  0.00    -0.090 HD
ATOM     20  H   LIG d   1      -4.844  79.187 116.015  0.00  0.00    -0.090 HD
ATOM     21  H   LIG d   1      -3.497  78.849 116.886  0.00  0.00    -0.090 HD
ENDBRANCH   5  18
BRANCH   3  22
ATOM     22  C   LIG d   1      -8.813  77.883 118.477  0.00  0.00     0.382 C 
ATOM     23  O   LIG d   1      -9.142  77.795 119.684  0.00  0.00    -0.241 OA
ATOM     24  O   LIG d   1      -9.641  78.297 117.644  0.00  0.00    -0.241 OA
ENDBRANCH   3  22
TORSDOF 7
ENDMDL
MODEL 8
REMARK VINA RESULT:      -5.1     11.584     14.180
REMARK  7 active torsions:
REMARK  status: ('A' for Active; 'I' for Inactive)
REMARK    1  A    between atoms: C_2  and  C_3 
REMARK    2  A    between atoms: C_3  and  O_6 
REMARK    3  A    between atoms: C_3  and  C_4 
REMARK    4  A    between atoms: C_7  and  O_6 
REMARK    5  A    between atoms: C_9  and  C_10 
REMARK    6  A    between atoms: N_15  and  C_14 
REMARK    7  A    between atoms: N_20  and  C_19 
REMARK       I    between atoms: C_22  and  N_20 
ROOT
ATOM      1  C   LIG d   1     -15.231  66.058 116.543  0.00  0.00     0.161 C 
ATOM      2  C   LIG d   1     -14.776  67.266 115.988  0.00  0.00     0.016 C 
ATOM      3  C   LIG d   1     -14.706  67.506 114.597  0.00  0.00     0.038 C 
ATOM      4  C   LIG d   1     -15.232  66.603 113.661  0.00  0.00     0.028 C 
ATOM      5  C   LIG d   1     -15.238  65.158 114.151  0.00  0.00    -0.047 C 
ATOM      6  C   LIG d   1     -15.913  65.103 115.541  0.00  0.00     0.091 C 
ENDROOT
BRANCH   1   7
ATOM      7  O   LIG d   1     -16.109  66.330 117.653  0.00  0.00    -0.368 OA
BRANCH   7   8
ATOM      8  C   LIG d   1     -15.544  66.140 118.974  0.00  0.00     0.119 C 
BRANCH   8   9
ATOM      9  C   LIG d   1     -14.987  67.499 119.440  0.00  0.00     0.028 C 
ATOM     10  C   LIG d   1     -13.450  67.533 119.444  0.00  0.00     0.006 C 
ENDBRANCH   8   9
BRANCH   8  11
ATOM     11  C   LIG d   1     -14.336  65.199 118.933  0.00  0.00     0.028 C 
ATOM     12  C   LIG d   1     -14.599  63.860 119.638  0.00  0.00     0.006 C 
ENDBRANCH   8  11
ENDBRANCH   7   8
ENDBRANCH   1   7
BRANCH   6  13
ATOM     13  N   LIG d   1     -15.885  63.739 116.130  0.00  0.00    -0.311 N 
ATOM     14  C   LIG d   1     -16.908  62.889 116.059  0.00  0.00     0.210 C 
ATOM     15  C   LIG d   1     -16.678  61.541 116.750  0.00  0.00     0.109 C 
ATOM     16  O   LIG d   1     -17.971  63.110 115.460  0.00  0.00    -0.276 OA
ATOM     17  H   LIG d   1     -15.049  63.465 116.608  0.00  0.00     0.149 HD
ENDBRANCH   6  13
BRANCH   5  18
ATOM     18  N   LIG d   1     -15.937  64.347 113.137  0.00  0.00     0.381 N 
ATOM     19  H   LIG d   1     -16.877  64.172 113.432  0.00  0.00    -0.090 HD
ATOM     20  H   LIG d   1     -15.465  63.464 113.046  0.00  0.00    -0.090 HD
ATOM     21  H   LIG d   1     -15.939  64.822 112.261  0.00  0.00    -0.090 HD
ENDBRANCH   5  18
BRANCH   3  22
ATOM     22  C   LIG d   1     -14.068  68.644 114.126  0.00  0.00     0.382 C 
ATOM     23  O   LIG d   1     -13.130  69.154 114.785  0.00  0.00    -0.241 OA
ATOM     24  O   LIG d   1     -14.448  69.192 113.074  0.00  0.00    -0.241 OA
ENDBRANCH   3  22
TORSDOF 7
ENDMDL
MODEL 9
REMARK VINA RESULT:      -5.0      2.675      6.428
REMARK  7 active torsions:
REMARK  status: ('A' for Active; 'I' for Inactive)
REMARK    1  A    between atoms: C_2  and  C_3 
REMARK    2  A    between atoms: C_3  and  O_6 
REMARK    3  A    between atoms: C_3  and  C_4 
REMARK    4  A    between atoms: C_7  and  O_6 
REMARK    5  A    between atoms: C_9  and  C_10 
REMARK    6  A    between atoms: N_15  and  C_14 
REMARK    7  A    between atoms: N_20  and  C_19 
REMARK       I    between atoms: C_22  and  N_20 
ROOT
ATOM      1  C   LIG d   1      -4.201  76.430 114.959  0.00  0.00     0.161 C 
ATOM      2  C   LIG d   1      -2.904  76.906 114.706  0.00  0.00     0.016 C 
ATOM      3  C   LIG d   1      -2.303  77.954 115.440  0.00  0.00     0.038 C 
ATOM      4  C   LIG d   1      -2.906  78.499 116.583  0.00  0.00     0.028 C 
ATOM      5  C   LIG d   1      -4.427  78.399 116.572  0.00  0.00    -0.047 C 
ATOM      6  C   LIG d   1      -4.832  76.937 116.273  0.00  0.00     0.091 C 
ENDROOT
BRANCH   1   7
ATOM      7  O   LIG d   1      -4.209  74.989 114.923  0.00  0.00    -0.368 OA
BRANCH   7   8
ATOM      8  C   LIG d   1      -4.088  74.319 116.202  0.00  0.00     0.119 C 
BRANCH   8   9
ATOM      9  C   LIG d   1      -2.756  73.545 116.194  0.00  0.00     0.028 C 
ATOM     10  C   LIG d   1      -1.667  74.242 117.027  0.00  0.00     0.006 C 
ENDBRANCH   8   9
BRANCH   8  11
ATOM     11  C   LIG d   1      -5.175  73.255 116.379  0.00  0.00     0.028 C 
ATOM     12  C   LIG d   1      -6.213  73.270 115.245  0.00  0.00     0.006 C 
ENDBRANCH   8  11
ENDBRANCH   7   8
ENDBRANCH   1   7
BRANCH   6  13
ATOM     13  N   LIG d   1      -6.304  76.768 116.160  0.00  0.00    -0.311 N 
ATOM     14  C   LIG d   1      -7.076  76.373 117.171  0.00  0.00     0.210 C 
ATOM     15  C   LIG d   1      -8.565  76.244 116.835  0.00  0.00     0.109 C 
ATOM     16  O   LIG d   1      -6.673  76.147 118.322  0.00  0.00    -0.276 OA
ATOM     17  H   LIG d   1      -6.718  76.960 115.269  0.00  0.00     0.149 HD
ENDBRANCH   6  13
BRANCH   5  18
ATOM     18  N   LIG d   1      -4.916  78.879 117.878  0.00  0.00     0.381 N 
ATOM     19  H   LIG d   1      -5.819  78.491 118.066  0.00  0.00    -0.090 HD
ATOM     20  H   LIG d   1      -5.003  79.879 117.846  0.00  0.00    -0.090 HD
ATOM     21  H   LIG d   1      -4.278  78.617 118.598  0.00  0.00    -0.090 HD
ENDBRANCH   5  18
BRANCH   3  22
ATOM     22  C   LIG d   1      -1.101  78.494 115.008  0.00  0.00     0.382 C 
ATOM     23  O   LIG d   1      -0.380  79.138 115.807  0.00  0.00    -0.241 OA
ATOM     24  O   LIG d   1      -0.751  78.384 113.818  0.00  0.00    -0.241 OA
ENDBRANCH   3  22
TORSDOF 7
ENDMDL
