MODEL 1
REMARK VINA RESULT:      -5.8      0.000      0.000
REMARK  7 active torsions:
REMARK  status: ('A' for Active; 'I' for Inactive)
REMARK    1  A    between atoms: C_2  and  C_3 
REMARK    2  A    between atoms: C_3  and  O_6 
REMARK    3  A    between atoms: C_3  and  C_4 
REMARK    4  A    between atoms: C_7  and  O_6 
REMARK    5  A    between atoms: C_9  and  C_10 
REMARK    6  A    between atoms: N_15  and  C_14 
REMARK    7  A    between atoms: N_20  and  C_19 
REMARK       I    between atoms: C_22  and  N_20 
ROOT
ATOM      1  C   LIG d   1      -5.746  92.894 117.378  0.00  0.00     0.161 C 
ATOM      2  C   LIG d   1      -6.809  92.021 117.091  0.00  0.00     0.016 C 
ATOM      3  C   LIG d   1      -6.627  90.665 116.735  0.00  0.00     0.038 C 
ATOM      4  C   LIG d   1      -5.369  90.047 116.789  0.00  0.00     0.028 C 
ATOM      5  C   LIG d   1      -4.208  91.015 116.583  0.00  0.00    -0.047 C 
ATOM      6  C   LIG d   1      -4.374  92.209 117.550  0.00  0.00     0.091 C 
ENDROOT
BRANCH   1   7
ATOM      7  O   LIG d   1      -6.063  93.682 118.543  0.00  0.00    -0.368 OA
BRANCH   7   8
ATOM      8  C   LIG d   1      -6.648  94.984 118.292  0.00  0.00     0.119 C 
BRANCH   8   9
ATOM      9  C   LIG d   1      -5.947  95.993 119.222  0.00  0.00     0.028 C 
ATOM     10  C   LIG d   1      -4.742  95.378 119.954  0.00  0.00     0.006 C 
ENDBRANCH   8   9
BRANCH   8  11
ATOM     11  C   LIG d   1      -8.125  95.018 118.697  0.00  0.00     0.028 C 
ATOM     12  C   LIG d   1      -8.380  94.386 120.074  0.00  0.00     0.006 C 
ENDBRANCH   8  11
ENDBRANCH   7   8
ENDBRANCH   1   7
BRANCH   6  13
ATOM     13  N   LIG d   1      -3.327  93.246 117.356  0.00  0.00    -0.311 N 
ATOM     14  C   LIG d   1      -2.213  93.307 118.084  0.00  0.00     0.210 C 
ATOM     15  C   LIG d   1      -1.275  94.467 117.733  0.00  0.00     0.109 C 
ATOM     16  O   LIG d   1      -1.898  92.493 118.965  0.00  0.00    -0.276 OA
ATOM     17  H   LIG d   1      -3.487  93.928 116.641  0.00  0.00     0.149 HD
ENDBRANCH   6  13
BRANCH   5  18
ATOM     18  N   LIG d   1      -2.957  90.264 116.801  0.00  0.00     0.381 N 
ATOM     19  H   LIG d   1      -2.891  89.518 116.138  0.00  0.00    -0.090 HD
ATOM     20  H   LIG d   1      -2.973  89.867 117.724  0.00  0.00    -0.090 HD
ATOM     21  H   LIG d   1      -2.174  90.873 116.707  0.00  0.00    -0.090 HD
ENDBRANCH   5  18
BRANCH   3  22
ATOM     22  C   LIG d   1      -7.706  89.923 116.281  0.00  0.00     0.382 C 
ATOM     23  O   LIG d   1      -8.428  90.367 115.356  0.00  0.00    -0.241 OA
ATOM     24  O   LIG d   1      -7.994  88.835 116.814  0.00  0.00    -0.241 OA
ENDBRANCH   3  22
TORSDOF 7
ENDMDL
MODEL 2
REMARK VINA RESULT:      -5.3      1.956      4.745
REMARK  7 active torsions:
REMARK  status: ('A' for Active; 'I' for Inactive)
REMARK    1  A    between atoms: C_2  and  C_3 
REMARK    2  A    between atoms: C_3  and  O_6 
REMARK    3  A    between atoms: C_3  and  C_4 
REMARK    4  A    between atoms: C_7  and  O_6 
REMARK    5  A    between atoms: C_9  and  C_10 
REMARK    6  A    between atoms: N_15  and  C_14 
REMARK    7  A    between atoms: N_20  and  C_19 
REMARK       I    between atoms: C_22  and  N_20 
ROOT
ATOM      1  C   LIG d   1      -5.948  92.876 117.542  0.00  0.00     0.161 C 
ATOM      2  C   LIG d   1      -7.225  93.411 117.774  0.00  0.00     0.016 C 
ATOM      3  C   LIG d   1      -7.507  94.333 118.809  0.00  0.00     0.038 C 
ATOM      4  C   LIG d   1      -6.491  94.900 119.593  0.00  0.00     0.028 C 
ATOM      5  C   LIG d   1      -5.260  94.010 119.726  0.00  0.00    -0.047 C 
ATOM      6  C   LIG d   1      -4.806  93.567 118.317  0.00  0.00     0.091 C 
ENDROOT
BRANCH   1   7
ATOM      7  O   LIG d   1      -5.667  92.877 116.129  0.00  0.00    -0.368 OA
BRANCH   7   8
ATOM      8  C   LIG d   1      -5.687  91.584 115.474  0.00  0.00     0.119 C 
BRANCH   8   9
ATOM      9  C   LIG d   1      -7.079  91.410 114.836  0.00  0.00     0.028 C 
ATOM     10  C   LIG d   1      -7.922  90.340 115.549  0.00  0.00     0.006 C 
ENDBRANCH   8   9
BRANCH   8  11
ATOM     11  C   LIG d   1      -5.560  90.444 116.488  0.00  0.00     0.028 C 
ATOM     12  C   LIG d   1      -4.227  89.688 116.371  0.00  0.00     0.006 C 
ENDBRANCH   8  11
ENDBRANCH   7   8
ENDBRANCH   1   7
BRANCH   6  13
ATOM     13  N   LIG d   1      -3.658  92.625 118.361  0.00  0.00    -0.311 N 
ATOM     14  C   LIG d   1      -2.390  93.006 118.209  0.00  0.00     0.210 C 
ATOM     15  C   LIG d   1      -1.362  91.872 118.269  0.00  0.00     0.109 C 
ATOM     16  O   LIG d   1      -2.018  94.180 118.062  0.00  0.00    -0.276 OA
ATOM     17  H   LIG d   1      -3.867  91.657 118.507  0.00  0.00     0.149 HD
ENDBRANCH   6  13
BRANCH   5  18
ATOM     18  N   LIG d   1      -4.231  94.779 120.451  0.00  0.00     0.381 N 
ATOM     19  H   LIG d   1      -3.402  94.227 120.547  0.00  0.00    -0.090 HD
ATOM     20  H   LIG d   1      -4.574  94.996 121.370  0.00  0.00    -0.090 HD
ATOM     21  H   LIG d   1      -4.023  95.619 119.958  0.00  0.00    -0.090 HD
ENDBRANCH   5  18
BRANCH   3  22
ATOM     22  C   LIG d   1      -8.822  94.665 119.094  0.00  0.00     0.382 C 
ATOM     23  O   LIG d   1      -9.457  94.023 119.966  0.00  0.00    -0.241 OA
ATOM     24  O   LIG d   1      -9.397  95.570 118.460  0.00  0.00    -0.241 OA
ENDBRANCH   3  22
TORSDOF 7
ENDMDL
MODEL 3
REMARK VINA RESULT:      -5.3     14.071     17.118
REMARK  7 active torsions:
REMARK  status: ('A' for Active; 'I' for Inactive)
REMARK    1  A    between atoms: C_2  and  C_3 
REMARK    2  A    between atoms: C_3  and  O_6 
REMARK    3  A    between atoms: C_3  and  C_4 
REMARK    4  A    between atoms: C_7  and  O_6 
REMARK    5  A    between atoms: C_9  and  C_10 
REMARK    6  A    between atoms: N_15  and  C_14 
REMARK    7  A    between atoms: N_20  and  C_19 
REMARK       I    between atoms: C_22  and  N_20 
ROOT
ATOM      1  C   LIG d   1      -4.807  75.874 118.299  0.00  0.00     0.161 C 
ATOM      2  C   LIG d   1      -5.831  76.834 118.252  0.00  0.00     0.016 C 
ATOM      3  C   LIG d   1      -5.633  78.161 117.804  0.00  0.00     0.038 C 
ATOM      4  C   LIG d   1      -4.425  78.576 117.225  0.00  0.00     0.028 C 
ATOM      5  C   LIG d   1      -3.216  77.786 117.716  0.00  0.00    -0.047 C 
ATOM      6  C   LIG d   1      -3.509  76.276 117.568  0.00  0.00     0.091 C 
ENDROOT
BRANCH   1   7
ATOM      7  O   LIG d   1      -5.295  74.614 117.796  0.00  0.00    -0.368 OA
BRANCH   7   8
ATOM      8  C   LIG d   1      -6.336  74.690 116.791  0.00  0.00     0.119 C 
BRANCH   8   9
ATOM      9  C   LIG d   1      -7.357  73.578 117.098  0.00  0.00     0.028 C 
ATOM     10  C   LIG d   1      -6.973  72.234 116.455  0.00  0.00     0.006 C 
ENDBRANCH   8   9
BRANCH   8  11
ATOM     11  C   LIG d   1      -5.789  74.365 115.398  0.00  0.00     0.028 C 
ATOM     12  C   LIG d   1      -5.596  75.616 114.527  0.00  0.00     0.006 C 
ENDBRANCH   8  11
ENDBRANCH   7   8
ENDBRANCH   1   7
BRANCH   6  13
ATOM     13  N   LIG d   1      -2.410  75.430 118.103  0.00  0.00    -0.311 N 
ATOM     14  C   LIG d   1      -1.889  74.400 117.440  0.00  0.00     0.210 C 
ATOM     15  C   LIG d   1      -0.778  73.649 118.182  0.00  0.00     0.109 C 
ATOM     16  O   LIG d   1      -2.218  74.056 116.295  0.00  0.00    -0.276 OA
ATOM     17  H   LIG d   1      -2.062  75.658 119.014  0.00  0.00     0.149 HD
ENDBRANCH   6  13
BRANCH   5  18
ATOM     18  N   LIG d   1      -2.047  78.228 116.932  0.00  0.00     0.381 N 
ATOM     19  H   LIG d   1      -1.569  78.960 117.420  0.00  0.00    -0.090 HD
ATOM     20  H   LIG d   1      -2.365  78.592 116.051  0.00  0.00    -0.090 HD
ATOM     21  H   LIG d   1      -1.429  77.462 116.780  0.00  0.00    -0.090 HD
ENDBRANCH   5  18
BRANCH   3  22
ATOM     22  C   LIG d   1      -6.641  79.099 117.969  0.00  0.00     0.382 C 
ATOM     23  O   LIG d   1      -6.584  80.194 117.360  0.00  0.00    -0.241 OA
ATOM     24  O   LIG d   1      -7.584  78.882 118.754  0.00  0.00    -0.241 OA
ENDBRANCH   3  22
TORSDOF 7
ENDMDL
MODEL 4
REMARK VINA RESULT:      -5.1     15.368     17.973
REMARK  7 active torsions:
REMARK  status: ('A' for Active; 'I' for Inactive)
REMARK    1  A    between atoms: C_2  and  C_3 
REMARK    2  A    between atoms: C_3  and  O_6 
REMARK    3  A    between atoms: C_3  and  C_4 
REMARK    4  A    between atoms: C_7  and  O_6 
REMARK    5  A    between atoms: C_9  and  C_10 
REMARK    6  A    between atoms: N_15  and  C_14 
REMARK    7  A    between atoms: N_20  and  C_19 
REMARK       I    between atoms: C_22  and  N_20 
ROOT
ATOM      1  C   LIG d   1      -3.471  75.023 116.608  0.00  0.00     0.161 C 
ATOM      2  C   LIG d   1      -4.310  73.959 116.980  0.00  0.00     0.016 C 
ATOM      3  C   LIG d   1      -5.513  73.645 116.305  0.00  0.00     0.038 C 
ATOM      4  C   LIG d   1      -5.883  74.283 115.112  0.00  0.00     0.028 C 
ATOM      5  C   LIG d   1      -5.325  75.697 114.984  0.00  0.00    -0.047 C 
ATOM      6  C   LIG d   1      -3.801  75.660 115.242  0.00  0.00     0.091 C 
ENDROOT
BRANCH   1   7
ATOM      7  O   LIG d   1      -2.095  74.594 116.641  0.00  0.00    -0.368 OA
BRANCH   7   8
ATOM      8  C   LIG d   1      -1.266  75.193 117.667  0.00  0.00     0.119 C 
BRANCH   8   9
ATOM      9  C   LIG d   1      -0.334  76.206 116.975  0.00  0.00     0.028 C 
ATOM     10  C   LIG d   1       0.001  77.406 117.878  0.00  0.00     0.006 C 
ENDBRANCH   8   9
BRANCH   8  11
ATOM     11  C   LIG d   1      -0.336  74.157 118.306  0.00  0.00     0.028 C 
ATOM     12  C   LIG d   1      -0.401  74.165 119.842  0.00  0.00     0.006 C 
ENDBRANCH   8  11
ENDBRANCH   7   8
ENDBRANCH   1   7
BRANCH   6  13
ATOM     13  N   LIG d   1      -3.190  77.015 115.219  0.00  0.00    -0.311 N 
ATOM     14  C   LIG d   1      -2.566  77.519 114.156  0.00  0.00     0.210 C 
ATOM     15  C   LIG d   1      -1.990  78.925 114.350  0.00  0.00     0.109 C 
ATOM     16  O   LIG d   1      -2.462  76.948 113.059  0.00  0.00    -0.276 OA
ATOM     17  H   LIG d   1      -3.255  77.559 116.056  0.00  0.00     0.149 HD
ENDBRANCH   6  13
BRANCH   5  18
ATOM     18  N   LIG d   1      -5.672  76.192 113.638  0.00  0.00     0.381 N 
ATOM     19  H   LIG d   1      -5.851  75.419 113.028  0.00  0.00    -0.090 HD
ATOM     20  H   LIG d   1      -4.892  76.708 113.271  0.00  0.00    -0.090 HD
ATOM     21  H   LIG d   1      -6.475  76.779 113.687  0.00  0.00    -0.090 HD
ENDBRANCH   5  18
BRANCH   3  22
ATOM     22  C   LIG d   1      -6.379  72.707 116.847  0.00  0.00     0.382 C 
ATOM     23  O   LIG d   1      -6.499  72.610 118.092  0.00  0.00    -0.241 OA
ATOM     24  O   LIG d   1      -7.010  71.928 116.108  0.00  0.00    -0.241 OA
ENDBRANCH   3  22
TORSDOF 7
ENDMDL
MODEL 5
REMARK VINA RESULT:      -5.0      2.290      4.641
REMARK  7 active torsions:
REMARK  status: ('A' for Active; 'I' for Inactive)
REMARK    1  A    between atoms: C_2  and  C_3 
REMARK    2  A    between atoms: C_3  and  O_6 
REMARK    3  A    between atoms: C_3  and  C_4 
REMARK    4  A    between atoms: C_7  and  O_6 
REMARK    5  A    between atoms: C_9  and  C_10 
REMARK    6  A    between atoms: N_15  and  C_14 
REMARK    7  A    between atoms: N_20  and  C_19 
REMARK       I    between atoms: C_22  and  N_20 
ROOT
ATOM      1  C   LIG d   1      -4.072  90.953 117.848  0.00  0.00     0.161 C 
ATOM      2  C   LIG d   1      -5.102  90.233 117.221  0.00  0.00     0.016 C 
ATOM      3  C   LIG d   1      -6.349  90.802 116.873  0.00  0.00     0.038 C 
ATOM      4  C   LIG d   1      -6.594  92.178 116.991  0.00  0.00     0.028 C 
ATOM      5  C   LIG d   1      -5.768  92.849 118.083  0.00  0.00    -0.047 C 
ATOM      6  C   LIG d   1      -4.280  92.482 117.884  0.00  0.00     0.091 C 
ENDROOT
BRANCH   1   7
ATOM      7  O   LIG d   1      -2.808  90.634 117.231  0.00  0.00    -0.368 OA
BRANCH   7   8
ATOM      8  C   LIG d   1      -1.848  89.943 118.067  0.00  0.00     0.119 C 
BRANCH   8   9
ATOM      9  C   LIG d   1      -0.454  90.516 117.742  0.00  0.00     0.028 C 
ATOM     10  C   LIG d   1       0.457  90.580 118.979  0.00  0.00     0.006 C 
ENDBRANCH   8   9
BRANCH   8  11
ATOM     11  C   LIG d   1      -1.768  88.456 117.712  0.00  0.00     0.028 C 
ATOM     12  C   LIG d   1      -2.018  87.540 118.921  0.00  0.00     0.006 C 
ENDBRANCH   8  11
ENDBRANCH   7   8
ENDBRANCH   1   7
BRANCH   6  13
ATOM     13  N   LIG d   1      -3.412  93.029 118.959  0.00  0.00    -0.311 N 
ATOM     14  C   LIG d   1      -2.274  93.680 118.723  0.00  0.00     0.210 C 
ATOM     15  C   LIG d   1      -1.523  94.143 119.974  0.00  0.00     0.109 C 
ATOM     16  O   LIG d   1      -1.833  93.946 117.595  0.00  0.00    -0.276 OA
ATOM     17  H   LIG d   1      -3.711  92.885 119.904  0.00  0.00     0.149 HD
ENDBRANCH   6  13
BRANCH   5  18
ATOM     18  N   LIG d   1      -6.021  94.301 118.005  0.00  0.00     0.381 N 
ATOM     19  H   LIG d   1      -6.302  94.644 118.901  0.00  0.00    -0.090 HD
ATOM     20  H   LIG d   1      -6.769  94.466 117.354  0.00  0.00    -0.090 HD
ATOM     21  H   LIG d   1      -5.198  94.774 117.703  0.00  0.00    -0.090 HD
ENDBRANCH   5  18
BRANCH   3  22
ATOM     22  C   LIG d   1      -7.380  89.984 116.436  0.00  0.00     0.382 C 
ATOM     23  O   LIG d   1      -8.307  89.672 117.221  0.00  0.00    -0.241 OA
ATOM     24  O   LIG d   1      -7.371  89.519 115.281  0.00  0.00    -0.241 OA
ENDBRANCH   3  22
TORSDOF 7
ENDMDL
MODEL 6
REMARK VINA RESULT:      -4.9      2.067      4.486
REMARK  7 active torsions:
REMARK  status: ('A' for Active; 'I' for Inactive)
REMARK    1  A    between atoms: C_2  and  C_3 
REMARK    2  A    between atoms: C_3  and  O_6 
REMARK    3  A    between atoms: C_3  and  C_4 
REMARK    4  A    between atoms: C_7  and  O_6 
REMARK    5  A    between atoms: C_9  and  C_10 
REMARK    6  A    between atoms: N_15  and  C_14 
REMARK    7  A    between atoms: N_20  and  C_19 
REMARK       I    between atoms: C_22  and  N_20 
ROOT
ATOM      1  C   LIG d   1      -4.276  92.369 117.996  0.00  0.00     0.161 C 
ATOM      2  C   LIG d   1      -4.419  91.365 117.023  0.00  0.00     0.016 C 
ATOM      3  C   LIG d   1      -5.614  91.146 116.300  0.00  0.00     0.038 C 
ATOM      4  C   LIG d   1      -6.708  92.019 116.394  0.00  0.00     0.028 C 
ATOM      5  C   LIG d   1      -6.790  92.746 117.733  0.00  0.00    -0.047 C 
ATOM      6  C   LIG d   1      -5.423  93.401 118.032  0.00  0.00     0.091 C 
ENDROOT
BRANCH   1   7
ATOM      7  O   LIG d   1      -3.008  93.033 117.829  0.00  0.00    -0.368 OA
BRANCH   7   8
ATOM      8  C   LIG d   1      -1.952  92.626 118.733  0.00  0.00     0.119 C 
BRANCH   8   9
ATOM      9  C   LIG d   1      -1.320  93.906 119.314  0.00  0.00     0.028 C 
ATOM     10  C   LIG d   1      -2.024  95.182 118.823  0.00  0.00     0.006 C 
ENDBRANCH   8   9
BRANCH   8  11
ATOM     11  C   LIG d   1      -0.819  91.919 117.983  0.00  0.00     0.028 C 
ATOM     12  C   LIG d   1       0.519  92.669 118.080  0.00  0.00     0.006 C 
ENDBRANCH   8  11
ENDBRANCH   7   8
ENDBRANCH   1   7
BRANCH   6  13
ATOM     13  N   LIG d   1      -5.390  94.062 119.363  0.00  0.00    -0.311 N 
ATOM     14  C   LIG d   1      -5.675  95.349 119.550  0.00  0.00     0.210 C 
ATOM     15  C   LIG d   1      -5.562  95.833 120.999  0.00  0.00     0.109 C 
ATOM     16  O   LIG d   1      -6.043  96.129 118.658  0.00  0.00    -0.276 OA
ATOM     17  H   LIG d   1      -5.132  93.495 120.148  0.00  0.00     0.149 HD
ENDBRANCH   6  13
BRANCH   5  18
ATOM     18  N   LIG d   1      -7.892  93.722 117.644  0.00  0.00     0.381 N 
ATOM     19  H   LIG d   1      -8.769  93.253 117.751  0.00  0.00    -0.090 HD
ATOM     20  H   LIG d   1      -7.873  94.152 116.736  0.00  0.00    -0.090 HD
ATOM     21  H   LIG d   1      -7.790  94.417 118.350  0.00  0.00    -0.090 HD
ENDBRANCH   5  18
BRANCH   3  22
ATOM     22  C   LIG d   1      -5.738  90.020 115.501  0.00  0.00     0.382 C 
ATOM     23  O   LIG d   1      -4.731  89.313 115.253  0.00  0.00    -0.241 OA
ATOM     24  O   LIG d   1      -6.834  89.726 114.988  0.00  0.00    -0.241 OA
ENDBRANCH   3  22
TORSDOF 7
ENDMDL
MODEL 7
REMARK VINA RESULT:      -4.9      2.381      4.163
REMARK  7 active torsions:
REMARK  status: ('A' for Active; 'I' for Inactive)
REMARK    1  A    between atoms: C_2  and  C_3 
REMARK    2  A    between atoms: C_3  and  O_6 
REMARK    3  A    between atoms: C_3  and  C_4 
REMARK    4  A    between atoms: C_7  and  O_6 
REMARK    5  A    between atoms: C_9  and  C_10 
REMARK    6  A    between atoms: N_15  and  C_14 
REMARK    7  A    between atoms: N_20  and  C_19 
REMARK       I    between atoms: C_22  and  N_20 
ROOT
ATOM      1  C   LIG d   1      -5.426  91.729 118.995  0.00  0.00     0.161 C 
ATOM      2  C   LIG d   1      -4.643  90.811 118.276  0.00  0.00     0.016 C 
ATOM      3  C   LIG d   1      -4.894  90.461 116.930  0.00  0.00     0.038 C 
ATOM      4  C   LIG d   1      -5.862  91.123 116.160  0.00  0.00     0.028 C 
ATOM      5  C   LIG d   1      -7.006  91.697 116.988  0.00  0.00    -0.047 C 
ATOM      6  C   LIG d   1      -6.417  92.544 118.139  0.00  0.00     0.091 C 
ENDROOT
BRANCH   1   7
ATOM      7  O   LIG d   1      -4.573  92.612 119.751  0.00  0.00    -0.368 OA
BRANCH   7   8
ATOM      8  C   LIG d   1      -3.907  93.655 118.997  0.00  0.00     0.119 C 
BRANCH   8   9
ATOM      9  C   LIG d   1      -2.391  93.398 119.091  0.00  0.00     0.028 C 
ATOM     10  C   LIG d   1      -1.576  94.364 118.215  0.00  0.00     0.006 C 
ENDBRANCH   8   9
BRANCH   8  11
ATOM     11  C   LIG d   1      -4.126  95.030 119.636  0.00  0.00     0.028 C 
ATOM     12  C   LIG d   1      -4.726  94.943 121.048  0.00  0.00     0.006 C 
ENDBRANCH   8  11
ENDBRANCH   7   8
ENDBRANCH   1   7
BRANCH   6  13
ATOM     13  N   LIG d   1      -7.467  93.074 119.048  0.00  0.00    -0.311 N 
ATOM     14  C   LIG d   1      -7.835  94.354 119.075  0.00  0.00     0.210 C 
ATOM     15  C   LIG d   1      -8.921  94.692 120.101  0.00  0.00     0.109 C 
ATOM     16  O   LIG d   1      -7.388  95.235 118.326  0.00  0.00    -0.276 OA
ATOM     17  H   LIG d   1      -7.905  92.421 119.668  0.00  0.00     0.149 HD
ENDBRANCH   6  13
BRANCH   5  18
ATOM     18  N   LIG d   1      -7.867  92.476 116.078  0.00  0.00     0.381 N 
ATOM     19  H   LIG d   1      -7.316  93.149 115.583  0.00  0.00    -0.090 HD
ATOM     20  H   LIG d   1      -8.553  92.969 116.623  0.00  0.00    -0.090 HD
ATOM     21  H   LIG d   1      -8.321  91.867 115.433  0.00  0.00    -0.090 HD
ENDBRANCH   5  18
BRANCH   3  22
ATOM     22  C   LIG d   1      -4.199  89.409 116.352  0.00  0.00     0.382 C 
ATOM     23  O   LIG d   1      -4.545  88.972 115.228  0.00  0.00    -0.241 OA
ATOM     24  O   LIG d   1      -3.259  88.863 116.960  0.00  0.00    -0.241 OA
ENDBRANCH   3  22
TORSDOF 7
ENDMDL
MODEL 8
REMARK VINA RESULT:      -4.9     15.647     18.140
REMARK  7 active torsions:
REMARK  status: ('A' for Active; 'I' for Inactive)
REMARK    1  A    between atoms: C_2  and  C_3 
REMARK    2  A    between atoms: C_3  and  O_6 
REMARK    3  A    between atoms: C_3  and  C_4 
REMARK    4  A    between atoms: C_7  and  O_6 
REMARK    5  A    between atoms: C_9  and  C_10 
REMARK    6  A    between atoms: N_15  and  C_14 
REMARK    7  A    between atoms: N_20  and  C_19 
REMARK       I    between atoms: C_22  and  N_20 
ROOT
ATOM      1  C   LIG d   1      -2.300  74.905 116.806  0.00  0.00     0.161 C 
ATOM      2  C   LIG d   1      -1.730  74.279 117.928  0.00  0.00     0.016 C 
ATOM      3  C   LIG d   1      -0.522  74.705 118.527  0.00  0.00     0.038 C 
ATOM      4  C   LIG d   1       0.125  75.886 118.133  0.00  0.00     0.028 C 
ATOM      5  C   LIG d   1      -0.141  76.267 116.681  0.00  0.00    -0.047 C 
ATOM      6  C   LIG d   1      -1.667  76.261 116.432  0.00  0.00     0.091 C 
ENDROOT
BRANCH   1   7
ATOM      7  O   LIG d   1      -3.721  75.050 116.997  0.00  0.00    -0.368 OA
BRANCH   7   8
ATOM      8  C   LIG d   1      -4.552  74.025 116.399  0.00  0.00     0.119 C 
BRANCH   8   9
ATOM      9  C   LIG d   1      -4.730  74.384 114.911  0.00  0.00     0.028 C 
ATOM     10  C   LIG d   1      -5.652  75.598 114.706  0.00  0.00     0.006 C 
ENDBRANCH   8   9
BRANCH   8  11
ATOM     11  C   LIG d   1      -5.965  74.038 116.991  0.00  0.00     0.028 C 
ATOM     12  C   LIG d   1      -6.584  72.635 117.084  0.00  0.00     0.006 C 
ENDBRANCH   8  11
ENDBRANCH   7   8
ENDBRANCH   1   7
BRANCH   6  13
ATOM     13  N   LIG d   1      -2.011  76.541 115.013  0.00  0.00    -0.311 N 
ATOM     14  C   LIG d   1      -2.243  77.766 114.543  0.00  0.00     0.210 C 
ATOM     15  C   LIG d   1      -2.601  77.830 113.055  0.00  0.00     0.109 C 
ATOM     16  O   LIG d   1      -2.154  78.808 115.210  0.00  0.00    -0.276 OA
ATOM     17  H   LIG d   1      -2.073  75.756 114.395  0.00  0.00     0.149 HD
ENDBRANCH   6  13
BRANCH   5  18
ATOM     18  N   LIG d   1       0.478  77.585 116.445  0.00  0.00     0.381 N 
ATOM     19  H   LIG d   1       0.863  77.936 117.299  0.00  0.00    -0.090 HD
ATOM     20  H   LIG d   1      -0.230  78.225 116.132  0.00  0.00    -0.090 HD
ATOM     21  H   LIG d   1       1.194  77.507 115.757  0.00  0.00    -0.090 HD
ENDBRANCH   5  18
BRANCH   3  22
ATOM     22  C   LIG d   1       0.073  73.923 119.505  0.00  0.00     0.382 C 
ATOM     23  O   LIG d   1      -0.509  72.893 119.925  0.00  0.00    -0.241 OA
ATOM     24  O   LIG d   1       1.163  74.258 120.006  0.00  0.00    -0.241 OA
ENDBRANCH   3  22
TORSDOF 7
ENDMDL
MODEL 9
REMARK VINA RESULT:      -4.8      1.872      2.456
REMARK  7 active torsions:
REMARK  status: ('A' for Active; 'I' for Inactive)
REMARK    1  A    between atoms: C_2  and  C_3 
REMARK    2  A    between atoms: C_3  and  O_6 
REMARK    3  A    between atoms: C_3  and  C_4 
REMARK    4  A    between atoms: C_7  and  O_6 
REMARK    5  A    between atoms: C_9  and  C_10 
REMARK    6  A    between atoms: N_15  and  C_14 
REMARK    7  A    between atoms: N_20  and  C_19 
REMARK       I    between atoms: C_22  and  N_20 
ROOT
ATOM      1  C   LIG d   1      -4.166  92.580 117.395  0.00  0.00     0.161 C 
ATOM      2  C   LIG d   1      -5.218  92.286 116.512  0.00  0.00     0.016 C 
ATOM      3  C   LIG d   1      -5.426  91.007 115.947  0.00  0.00     0.038 C 
ATOM      4  C   LIG d   1      -4.678  89.889 116.348  0.00  0.00     0.028 C 
ATOM      5  C   LIG d   1      -3.285  90.243 116.855  0.00  0.00    -0.047 C 
ATOM      6  C   LIG d   1      -3.407  91.347 117.930  0.00  0.00     0.091 C 
ENDROOT
BRANCH   1   7
ATOM      7  O   LIG d   1      -4.655  93.381 118.489  0.00  0.00    -0.368 OA
BRANCH   7   8
ATOM      8  C   LIG d   1      -5.626  92.748 119.358  0.00  0.00     0.119 C 
BRANCH   8   9
ATOM      9  C   LIG d   1      -6.900  93.615 119.339  0.00  0.00     0.028 C 
ATOM     10  C   LIG d   1      -6.652  95.008 118.736  0.00  0.00     0.006 C 
ENDBRANCH   8   9
BRANCH   8  11
ATOM     11  C   LIG d   1      -5.156  92.751 120.815  0.00  0.00     0.028 C 
ATOM     12  C   LIG d   1      -3.936  93.657 121.046  0.00  0.00     0.006 C 
ENDBRANCH   8  11
ENDBRANCH   7   8
ENDBRANCH   1   7
BRANCH   6  13
ATOM     13  N   LIG d   1      -2.083  91.812 118.419  0.00  0.00    -0.311 N 
ATOM     14  C   LIG d   1      -1.502  91.340 119.521  0.00  0.00     0.210 C 
ATOM     15  C   LIG d   1      -0.147  91.970 119.858  0.00  0.00     0.109 C 
ATOM     16  O   LIG d   1      -1.966  90.437 120.234  0.00  0.00    -0.276 OA
ATOM     17  H   LIG d   1      -1.622  92.521 117.884  0.00  0.00     0.149 HD
ENDBRANCH   6  13
BRANCH   5  18
ATOM     18  N   LIG d   1      -2.669  89.004 117.367  0.00  0.00     0.381 N 
ATOM     19  H   LIG d   1      -2.728  88.285 116.674  0.00  0.00    -0.090 HD
ATOM     20  H   LIG d   1      -3.176  88.701 118.180  0.00  0.00    -0.090 HD
ATOM     21  H   LIG d   1      -1.715  89.170 117.604  0.00  0.00    -0.090 HD
ENDBRANCH   5  18
BRANCH   3  22
ATOM     22  C   LIG d   1      -6.365  90.845 114.940  0.00  0.00     0.382 C 
ATOM     23  O   LIG d   1      -6.729  91.832 114.257  0.00  0.00    -0.241 OA
ATOM     24  O   LIG d   1      -6.885  89.731 114.734  0.00  0.00    -0.241 OA
ENDBRANCH   3  22
TORSDOF 7
ENDMDL
