MODEL 1
REMARK VINA RESULT:      -5.9      0.000      0.000
REMARK  7 active torsions:
REMARK  status: ('A' for Active; 'I' for Inactive)
REMARK    1  A    between atoms: C_2  and  C_3 
REMARK    2  A    between atoms: C_3  and  O_6 
REMARK    3  A    between atoms: C_3  and  C_4 
REMARK    4  A    between atoms: C_7  and  O_6 
REMARK    5  A    between atoms: C_9  and  C_10 
REMARK    6  A    between atoms: N_15  and  C_14 
REMARK    7  A    between atoms: N_20  and  C_19 
REMARK       I    between atoms: C_22  and  N_20 
ROOT
ATOM      1  C   LIG d   1      -4.966  91.127 116.504  0.00  0.00     0.161 C 
ATOM      2  C   LIG d   1      -4.321  90.029 115.911  0.00  0.00     0.016 C 
ATOM      3  C   LIG d   1      -4.879  89.277 114.851  0.00  0.00     0.038 C 
ATOM      4  C   LIG d   1      -6.063  89.669 114.209  0.00  0.00     0.028 C 
ATOM      5  C   LIG d   1      -7.000  90.474 115.102  0.00  0.00    -0.047 C 
ATOM      6  C   LIG d   1      -6.207  91.636 115.742  0.00  0.00     0.091 C 
ENDROOT
BRANCH   1   7
ATOM      7  O   LIG d   1      -4.023  92.200 116.700  0.00  0.00    -0.368 OA
BRANCH   7   8
ATOM      8  C   LIG d   1      -3.587  92.423 118.064  0.00  0.00     0.119 C 
BRANCH   8   9
ATOM      9  C   LIG d   1      -4.151  93.785 118.513  0.00  0.00     0.028 C 
ATOM     10  C   LIG d   1      -3.242  94.958 118.110  0.00  0.00     0.006 C 
ENDBRANCH   8   9
BRANCH   8  11
ATOM     11  C   LIG d   1      -2.065  92.568 118.145  0.00  0.00     0.028 C 
ATOM     12  C   LIG d   1      -1.323  91.272 117.782  0.00  0.00     0.006 C 
ENDBRANCH   8  11
ENDBRANCH   7   8
ENDBRANCH   1   7
BRANCH   6  13
ATOM     13  N   LIG d   1      -7.029  92.425 116.698  0.00  0.00    -0.311 N 
ATOM     14  C   LIG d   1      -7.377  93.694 116.491  0.00  0.00     0.210 C 
ATOM     15  C   LIG d   1      -8.209  94.326 117.611  0.00  0.00     0.109 C 
ATOM     16  O   LIG d   1      -7.103  94.346 115.472  0.00  0.00    -0.276 OA
ATOM     17  H   LIG d   1      -7.320  91.964 117.537  0.00  0.00     0.149 HD
ENDBRANCH   6  13
BRANCH   5  18
ATOM     18  N   LIG d   1      -8.127  90.933 114.268  0.00  0.00     0.381 N 
ATOM     19  H   LIG d   1      -7.900  90.820 113.301  0.00  0.00    -0.090 HD
ATOM     20  H   LIG d   1      -8.285  91.910 114.444  0.00  0.00    -0.090 HD
ATOM     21  H   LIG d   1      -8.947  90.412 114.487  0.00  0.00    -0.090 HD
ENDBRANCH   5  18
BRANCH   3  22
ATOM     22  C   LIG d   1      -4.272  88.097 114.452  0.00  0.00     0.382 C 
ATOM     23  O   LIG d   1      -4.523  87.614 113.321  0.00  0.00    -0.241 OA
ATOM     24  O   LIG d   1      -3.511  87.485 115.224  0.00  0.00    -0.241 OA
ENDBRANCH   3  22
TORSDOF 7
ENDMDL
MODEL 2
REMARK VINA RESULT:      -5.5      2.033      5.369
REMARK  7 active torsions:
REMARK  status: ('A' for Active; 'I' for Inactive)
REMARK    1  A    between atoms: C_2  and  C_3 
REMARK    2  A    between atoms: C_3  and  O_6 
REMARK    3  A    between atoms: C_3  and  C_4 
REMARK    4  A    between atoms: C_7  and  O_6 
REMARK    5  A    between atoms: C_9  and  C_10 
REMARK    6  A    between atoms: N_15  and  C_14 
REMARK    7  A    between atoms: N_20  and  C_19 
REMARK       I    between atoms: C_22  and  N_20 
ROOT
ATOM      1  C   LIG d   1      -5.237  93.034 117.303  0.00  0.00     0.161 C 
ATOM      2  C   LIG d   1      -5.672  94.238 117.881  0.00  0.00     0.016 C 
ATOM      3  C   LIG d   1      -6.887  94.873 117.534  0.00  0.00     0.038 C 
ATOM      4  C   LIG d   1      -7.827  94.265 116.688  0.00  0.00     0.028 C 
ATOM      5  C   LIG d   1      -7.205  93.290 115.694  0.00  0.00    -0.047 C 
ATOM      6  C   LIG d   1      -6.301  92.299 116.461  0.00  0.00     0.091 C 
ENDROOT
BRANCH   1   7
ATOM      7  O   LIG d   1      -4.717  92.161 118.326  0.00  0.00    -0.368 OA
BRANCH   7   8
ATOM      8  C   LIG d   1      -3.355  91.703 118.140  0.00  0.00     0.119 C 
BRANCH   8   9
ATOM      9  C   LIG d   1      -3.292  90.236 118.607  0.00  0.00     0.028 C 
ATOM     10  C   LIG d   1      -2.521  89.340 117.623  0.00  0.00     0.006 C 
ENDBRANCH   8   9
BRANCH   8  11
ATOM     11  C   LIG d   1      -2.384  92.460 119.052  0.00  0.00     0.028 C 
ATOM     12  C   LIG d   1      -1.372  93.311 118.268  0.00  0.00     0.006 C 
ENDBRANCH   8  11
ENDBRANCH   7   8
ENDBRANCH   1   7
BRANCH   6  13
ATOM     13  N   LIG d   1      -5.588  91.363 115.553  0.00  0.00    -0.311 N 
ATOM     14  C   LIG d   1      -5.640  90.038 115.678  0.00  0.00     0.210 C 
ATOM     15  C   LIG d   1      -4.815  89.258 114.649  0.00  0.00     0.109 C 
ATOM     16  O   LIG d   1      -6.317  89.433 116.524  0.00  0.00    -0.276 OA
ATOM     17  H   LIG d   1      -5.040  91.767 114.820  0.00  0.00     0.149 HD
ENDBRANCH   6  13
BRANCH   5  18
ATOM     18  N   LIG d   1      -8.307  92.627 114.972  0.00  0.00     0.381 N 
ATOM     19  H   LIG d   1      -9.181  92.859 115.400  0.00  0.00    -0.090 HD
ATOM     20  H   LIG d   1      -8.182  91.632 115.029  0.00  0.00    -0.090 HD
ATOM     21  H   LIG d   1      -8.311  92.914 114.017  0.00  0.00    -0.090 HD
ENDBRANCH   5  18
BRANCH   3  22
ATOM     22  C   LIG d   1      -7.153  96.150 118.003  0.00  0.00     0.382 C 
ATOM     23  O   LIG d   1      -7.415  96.330 119.217  0.00  0.00    -0.241 OA
ATOM     24  O   LIG d   1      -7.178  97.119 117.220  0.00  0.00    -0.241 OA
ENDBRANCH   3  22
TORSDOF 7
ENDMDL
MODEL 3
REMARK VINA RESULT:      -5.4      2.756      4.502
REMARK  7 active torsions:
REMARK  status: ('A' for Active; 'I' for Inactive)
REMARK    1  A    between atoms: C_2  and  C_3 
REMARK    2  A    between atoms: C_3  and  O_6 
REMARK    3  A    between atoms: C_3  and  C_4 
REMARK    4  A    between atoms: C_7  and  O_6 
REMARK    5  A    between atoms: C_9  and  C_10 
REMARK    6  A    between atoms: N_15  and  C_14 
REMARK    7  A    between atoms: N_20  and  C_19 
REMARK       I    between atoms: C_22  and  N_20 
ROOT
ATOM      1  C   LIG d   1      -5.502  92.723 117.186  0.00  0.00     0.161 C 
ATOM      2  C   LIG d   1      -6.553  91.879 116.791  0.00  0.00     0.016 C 
ATOM      3  C   LIG d   1      -6.369  90.527 116.422  0.00  0.00     0.038 C 
ATOM      4  C   LIG d   1      -5.133  89.880 116.570  0.00  0.00     0.028 C 
ATOM      5  C   LIG d   1      -3.940  90.826 116.485  0.00  0.00    -0.047 C 
ATOM      6  C   LIG d   1      -4.164  92.005 117.460  0.00  0.00     0.091 C 
ENDROOT
BRANCH   1   7
ATOM      7  O   LIG d   1      -5.901  93.495 118.336  0.00  0.00    -0.368 OA
BRANCH   7   8
ATOM      8  C   LIG d   1      -6.030  94.924 118.131  0.00  0.00     0.119 C 
BRANCH   8   9
ATOM      9  C   LIG d   1      -5.471  95.623 119.385  0.00  0.00     0.028 C 
ATOM     10  C   LIG d   1      -4.318  96.586 119.055  0.00  0.00     0.006 C 
ENDBRANCH   8   9
BRANCH   8  11
ATOM     11  C   LIG d   1      -7.500  95.345 118.052  0.00  0.00     0.028 C 
ATOM     12  C   LIG d   1      -8.428  94.422 118.858  0.00  0.00     0.006 C 
ENDBRANCH   8  11
ENDBRANCH   7   8
ENDBRANCH   1   7
BRANCH   6  13
ATOM     13  N   LIG d   1      -3.083  93.021 117.378  0.00  0.00    -0.311 N 
ATOM     14  C   LIG d   1      -2.401  93.453 118.437  0.00  0.00     0.210 C 
ATOM     15  C   LIG d   1      -1.342  94.518 118.135  0.00  0.00     0.109 C 
ATOM     16  O   LIG d   1      -2.549  93.031 119.594  0.00  0.00    -0.276 OA
ATOM     17  H   LIG d   1      -2.875  93.394 116.472  0.00  0.00     0.149 HD
ENDBRANCH   6  13
BRANCH   5  18
ATOM     18  N   LIG d   1      -2.728  90.044 116.793  0.00  0.00     0.381 N 
ATOM     19  H   LIG d   1      -2.753  89.173 116.301  0.00  0.00    -0.090 HD
ATOM     20  H   LIG d   1      -2.708  89.849 117.778  0.00  0.00    -0.090 HD
ATOM     21  H   LIG d   1      -1.915  90.558 116.532  0.00  0.00    -0.090 HD
ENDBRANCH   5  18
BRANCH   3  22
ATOM     22  C   LIG d   1      -7.420  89.818 115.862  0.00  0.00     0.382 C 
ATOM     23  O   LIG d   1      -8.130  89.074 116.582  0.00  0.00    -0.241 OA
ATOM     24  O   LIG d   1      -7.641  89.877 114.637  0.00  0.00    -0.241 OA
ENDBRANCH   3  22
TORSDOF 7
ENDMDL
MODEL 4
REMARK VINA RESULT:      -5.3      1.385      1.888
REMARK  7 active torsions:
REMARK  status: ('A' for Active; 'I' for Inactive)
REMARK    1  A    between atoms: C_2  and  C_3 
REMARK    2  A    between atoms: C_3  and  O_6 
REMARK    3  A    between atoms: C_3  and  C_4 
REMARK    4  A    between atoms: C_7  and  O_6 
REMARK    5  A    between atoms: C_9  and  C_10 
REMARK    6  A    between atoms: N_15  and  C_14 
REMARK    7  A    between atoms: N_20  and  C_19 
REMARK       I    between atoms: C_22  and  N_20 
ROOT
ATOM      1  C   LIG d   1      -5.255  91.355 117.702  0.00  0.00     0.161 C 
ATOM      2  C   LIG d   1      -4.600  90.331 116.999  0.00  0.00     0.016 C 
ATOM      3  C   LIG d   1      -5.011  89.874 115.725  0.00  0.00     0.038 C 
ATOM      4  C   LIG d   1      -6.021  90.520 114.997  0.00  0.00     0.028 C 
ATOM      5  C   LIG d   1      -7.041  91.233 115.878  0.00  0.00    -0.047 C 
ATOM      6  C   LIG d   1      -6.291  92.146 116.875  0.00  0.00     0.091 C 
ENDROOT
BRANCH   1   7
ATOM      7  O   LIG d   1      -4.284  92.252 118.277  0.00  0.00    -0.368 OA
BRANCH   7   8
ATOM      8  C   LIG d   1      -2.980  91.685 118.556  0.00  0.00     0.119 C 
BRANCH   8   9
ATOM      9  C   LIG d   1      -2.909  91.411 120.071  0.00  0.00     0.028 C 
ATOM     10  C   LIG d   1      -2.644  89.929 120.387  0.00  0.00     0.006 C 
ENDBRANCH   8   9
BRANCH   8  11
ATOM     11  C   LIG d   1      -1.863  92.693 118.273  0.00  0.00     0.028 C 
ATOM     12  C   LIG d   1      -1.514  93.555 119.497  0.00  0.00     0.006 C 
ENDBRANCH   8  11
ENDBRANCH   7   8
ENDBRANCH   1   7
BRANCH   6  13
ATOM     13  N   LIG d   1      -7.211  92.817 117.831  0.00  0.00    -0.311 N 
ATOM     14  C   LIG d   1      -7.690  94.046 117.646  0.00  0.00     0.210 C 
ATOM     15  C   LIG d   1      -8.606  94.558 118.763  0.00  0.00     0.109 C 
ATOM     16  O   LIG d   1      -7.469  94.749 116.648  0.00  0.00    -0.276 OA
ATOM     17  H   LIG d   1      -7.467  92.307 118.653  0.00  0.00     0.149 HD
ENDBRANCH   6  13
BRANCH   5  18
ATOM     18  N   LIG d   1      -7.955  91.976 114.990  0.00  0.00     0.381 N 
ATOM     19  H   LIG d   1      -8.854  92.057 115.421  0.00  0.00    -0.090 HD
ATOM     20  H   LIG d   1      -8.062  91.464 114.132  0.00  0.00    -0.090 HD
ATOM     21  H   LIG d   1      -7.586  92.881 114.801  0.00  0.00    -0.090 HD
ENDBRANCH   5  18
BRANCH   3  22
ATOM     22  C   LIG d   1      -4.434  88.735 115.185  0.00  0.00     0.382 C 
ATOM     23  O   LIG d   1      -4.667  88.420 113.993  0.00  0.00    -0.241 OA
ATOM     24  O   LIG d   1      -3.720  87.994 115.886  0.00  0.00    -0.241 OA
ENDBRANCH   3  22
TORSDOF 7
ENDMDL
MODEL 5
REMARK VINA RESULT:      -5.1     31.653     33.925
REMARK  7 active torsions:
REMARK  status: ('A' for Active; 'I' for Inactive)
REMARK    1  A    between atoms: C_2  and  C_3 
REMARK    2  A    between atoms: C_3  and  O_6 
REMARK    3  A    between atoms: C_3  and  C_4 
REMARK    4  A    between atoms: C_7  and  O_6 
REMARK    5  A    between atoms: C_9  and  C_10 
REMARK    6  A    between atoms: N_15  and  C_14 
REMARK    7  A    between atoms: N_20  and  C_19 
REMARK       I    between atoms: C_22  and  N_20 
ROOT
ATOM      1  C   LIG d   1      -0.489  57.187 117.666  0.00  0.00     0.161 C 
ATOM      2  C   LIG d   1       0.016  58.006 116.642  0.00  0.00     0.016 C 
ATOM      3  C   LIG d   1      -0.781  58.518 115.592  0.00  0.00     0.038 C 
ATOM      4  C   LIG d   1      -2.176  58.369 115.579  0.00  0.00     0.028 C 
ATOM      5  C   LIG d   1      -2.659  57.126 116.319  0.00  0.00    -0.047 C 
ATOM      6  C   LIG d   1      -2.028  57.106 117.730  0.00  0.00     0.091 C 
ENDROOT
BRANCH   1   7
ATOM      7  O   LIG d   1       0.044  57.611 118.937  0.00  0.00    -0.368 OA
BRANCH   7   8
ATOM      8  C   LIG d   1       0.194  59.040 119.120  0.00  0.00     0.119 C 
BRANCH   8   9
ATOM      9  C   LIG d   1       1.517  59.273 119.875  0.00  0.00     0.028 C 
ATOM     10  C   LIG d   1       2.605  58.260 119.481  0.00  0.00     0.006 C 
ENDBRANCH   8   9
BRANCH   8  11
ATOM     11  C   LIG d   1      -0.898  59.603 120.034  0.00  0.00     0.028 C 
ATOM     12  C   LIG d   1      -1.750  60.683 119.349  0.00  0.00     0.006 C 
ENDBRANCH   8  11
ENDBRANCH   7   8
ENDBRANCH   1   7
BRANCH   6  13
ATOM     13  N   LIG d   1      -2.382  55.879 118.491  0.00  0.00    -0.311 N 
ATOM     14  C   LIG d   1      -2.937  55.903 119.702  0.00  0.00     0.210 C 
ATOM     15  C   LIG d   1      -3.203  54.526 120.318  0.00  0.00     0.109 C 
ATOM     16  O   LIG d   1      -3.264  56.933 120.310  0.00  0.00    -0.276 OA
ATOM     17  H   LIG d   1      -2.180  55.000 118.059  0.00  0.00     0.149 HD
ENDBRANCH   6  13
BRANCH   5  18
ATOM     18  N   LIG d   1      -4.133  57.169 116.346  0.00  0.00     0.381 N 
ATOM     19  H   LIG d   1      -4.451  58.075 116.065  0.00  0.00    -0.090 HD
ATOM     20  H   LIG d   1      -4.446  57.002 117.286  0.00  0.00    -0.090 HD
ATOM     21  H   LIG d   1      -4.505  56.474 115.735  0.00  0.00    -0.090 HD
ENDBRANCH   5  18
BRANCH   3  22
ATOM     22  C   LIG d   1      -0.177  59.155 114.518  0.00  0.00     0.382 C 
ATOM     23  O   LIG d   1       1.000  58.861 114.197  0.00  0.00    -0.241 OA
ATOM     24  O   LIG d   1      -0.777  60.050 113.895  0.00  0.00    -0.241 OA
ENDBRANCH   3  22
TORSDOF 7
ENDMDL
MODEL 6
REMARK VINA RESULT:      -5.0     15.128     17.451
REMARK  7 active torsions:
REMARK  status: ('A' for Active; 'I' for Inactive)
REMARK    1  A    between atoms: C_2  and  C_3 
REMARK    2  A    between atoms: C_3  and  O_6 
REMARK    3  A    between atoms: C_3  and  C_4 
REMARK    4  A    between atoms: C_7  and  O_6 
REMARK    5  A    between atoms: C_9  and  C_10 
REMARK    6  A    between atoms: N_15  and  C_14 
REMARK    7  A    between atoms: N_20  and  C_19 
REMARK       I    between atoms: C_22  and  N_20 
ROOT
ATOM      1  C   LIG d   1      -1.546  74.218 116.748  0.00  0.00     0.161 C 
ATOM      2  C   LIG d   1      -2.516  74.719 115.863  0.00  0.00     0.016 C 
ATOM      3  C   LIG d   1      -3.281  75.879 116.123  0.00  0.00     0.038 C 
ATOM      4  C   LIG d   1      -3.020  76.708 117.224  0.00  0.00     0.028 C 
ATOM      5  C   LIG d   1      -2.394  75.971 118.403  0.00  0.00    -0.047 C 
ATOM      6  C   LIG d   1      -1.170  75.171 117.902  0.00  0.00     0.091 C 
ENDROOT
BRANCH   1   7
ATOM      7  O   LIG d   1      -0.368  73.831 116.013  0.00  0.00    -0.368 OA
BRANCH   7   8
ATOM      8  C   LIG d   1      -0.074  74.606 114.825  0.00  0.00     0.119 C 
BRANCH   8   9
ATOM      9  C   LIG d   1       0.743  73.708 113.877  0.00  0.00     0.028 C 
ATOM     10  C   LIG d   1       0.144  72.298 113.742  0.00  0.00     0.006 C 
ENDBRANCH   8   9
BRANCH   8  11
ATOM     11  C   LIG d   1       0.839  75.793 115.147  0.00  0.00     0.028 C 
ATOM     12  C   LIG d   1       0.171  77.150 114.873  0.00  0.00     0.006 C 
ENDBRANCH   8  11
ENDBRANCH   7   8
ENDBRANCH   1   7
BRANCH   6  13
ATOM     13  N   LIG d   1      -0.548  74.354 118.976  0.00  0.00    -0.311 N 
ATOM     14  C   LIG d   1       0.711  74.510 119.381  0.00  0.00     0.210 C 
ATOM     15  C   LIG d   1       1.158  73.550 120.488  0.00  0.00     0.109 C 
ATOM     16  O   LIG d   1       1.489  75.375 118.952  0.00  0.00    -0.276 OA
ATOM     17  H   LIG d   1      -1.119  73.649 119.401  0.00  0.00     0.149 HD
ENDBRANCH   6  13
BRANCH   5  18
ATOM     18  N   LIG d   1      -2.048  76.977 119.425  0.00  0.00     0.381 N 
ATOM     19  H   LIG d   1      -1.897  77.864 118.989  0.00  0.00    -0.090 HD
ATOM     20  H   LIG d   1      -1.196  76.699 119.879  0.00  0.00    -0.090 HD
ATOM     21  H   LIG d   1      -2.783  77.048 120.095  0.00  0.00    -0.090 HD
ENDBRANCH   5  18
BRANCH   3  22
ATOM     22  C   LIG d   1      -4.347  76.198 115.296  0.00  0.00     0.382 C 
ATOM     23  O   LIG d   1      -4.877  77.334 115.366  0.00  0.00    -0.241 OA
ATOM     24  O   LIG d   1      -4.815  75.351 114.512  0.00  0.00    -0.241 OA
ENDBRANCH   3  22
TORSDOF 7
ENDMDL
MODEL 7
REMARK VINA RESULT:      -4.9      2.555      3.902
REMARK  7 active torsions:
REMARK  status: ('A' for Active; 'I' for Inactive)
REMARK    1  A    between atoms: C_2  and  C_3 
REMARK    2  A    between atoms: C_3  and  O_6 
REMARK    3  A    between atoms: C_3  and  C_4 
REMARK    4  A    between atoms: C_7  and  O_6 
REMARK    5  A    between atoms: C_9  and  C_10 
REMARK    6  A    between atoms: N_15  and  C_14 
REMARK    7  A    between atoms: N_20  and  C_19 
REMARK       I    between atoms: C_22  and  N_20 
ROOT
ATOM      1  C   LIG d   1      -4.972  91.903 117.195  0.00  0.00     0.161 C 
ATOM      2  C   LIG d   1      -5.673  91.124 116.260  0.00  0.00     0.016 C 
ATOM      3  C   LIG d   1      -6.750  91.617 115.488  0.00  0.00     0.038 C 
ATOM      4  C   LIG d   1      -7.102  92.975 115.489  0.00  0.00     0.028 C 
ATOM      5  C   LIG d   1      -6.752  93.691 116.789  0.00  0.00    -0.047 C 
ATOM      6  C   LIG d   1      -5.269  93.415 117.130  0.00  0.00     0.091 C 
ENDROOT
BRANCH   1   7
ATOM      7  O   LIG d   1      -3.556  91.664 117.066  0.00  0.00    -0.368 OA
BRANCH   7   8
ATOM      8  C   LIG d   1      -2.931  90.931 118.148  0.00  0.00     0.119 C 
BRANCH   8   9
ATOM      9  C   LIG d   1      -2.646  89.506 117.638  0.00  0.00     0.028 C 
ATOM     10  C   LIG d   1      -1.150  89.154 117.683  0.00  0.00     0.006 C 
ENDBRANCH   8   9
BRANCH   8  11
ATOM     11  C   LIG d   1      -3.891  90.755 119.329  0.00  0.00     0.028 C 
ATOM     12  C   LIG d   1      -3.373  91.407 120.620  0.00  0.00     0.006 C 
ENDBRANCH   8  11
ENDBRANCH   7   8
ENDBRANCH   1   7
BRANCH   6  13
ATOM     13  N   LIG d   1      -4.867  94.010 118.431  0.00  0.00    -0.311 N 
ATOM     14  C   LIG d   1      -3.718  94.657 118.618  0.00  0.00     0.210 C 
ATOM     15  C   LIG d   1      -3.490  95.174 120.042  0.00  0.00     0.109 C 
ATOM     16  O   LIG d   1      -2.880  94.880 117.731  0.00  0.00    -0.276 OA
ATOM     17  H   LIG d   1      -5.502  93.902 119.198  0.00  0.00     0.149 HD
ENDBRANCH   6  13
BRANCH   5  18
ATOM     18  N   LIG d   1      -7.046  95.124 116.603  0.00  0.00     0.381 N 
ATOM     19  H   LIG d   1      -7.095  95.578 117.492  0.00  0.00    -0.090 HD
ATOM     20  H   LIG d   1      -7.938  95.216 116.151  0.00  0.00    -0.090 HD
ATOM     21  H   LIG d   1      -6.337  95.547 116.044  0.00  0.00    -0.090 HD
ENDBRANCH   5  18
BRANCH   3  22
ATOM     22  C   LIG d   1      -7.512  90.740 114.732  0.00  0.00     0.382 C 
ATOM     23  O   LIG d   1      -8.313  89.957 115.299  0.00  0.00    -0.241 OA
ATOM     24  O   LIG d   1      -7.378  90.690 113.495  0.00  0.00    -0.241 OA
ENDBRANCH   3  22
TORSDOF 7
ENDMDL
MODEL 8
REMARK VINA RESULT:      -4.9      2.626      4.745
REMARK  7 active torsions:
REMARK  status: ('A' for Active; 'I' for Inactive)
REMARK    1  A    between atoms: C_2  and  C_3 
REMARK    2  A    between atoms: C_3  and  O_6 
REMARK    3  A    between atoms: C_3  and  C_4 
REMARK    4  A    between atoms: C_7  and  O_6 
REMARK    5  A    between atoms: C_9  and  C_10 
REMARK    6  A    between atoms: N_15  and  C_14 
REMARK    7  A    between atoms: N_20  and  C_19 
REMARK       I    between atoms: C_22  and  N_20 
ROOT
ATOM      1  C   LIG d   1      -4.562  93.168 116.931  0.00  0.00     0.161 C 
ATOM      2  C   LIG d   1      -5.193  91.982 116.519  0.00  0.00     0.016 C 
ATOM      3  C   LIG d   1      -4.819  90.700 116.983  0.00  0.00     0.038 C 
ATOM      4  C   LIG d   1      -3.882  90.529 118.013  0.00  0.00     0.028 C 
ATOM      5  C   LIG d   1      -2.863  91.660 118.099  0.00  0.00    -0.047 C 
ATOM      6  C   LIG d   1      -3.614  93.011 118.137  0.00  0.00     0.091 C 
ENDROOT
BRANCH   1   7
ATOM      7  O   LIG d   1      -5.553  94.179 117.201  0.00  0.00    -0.368 OA
BRANCH   7   8
ATOM      8  C   LIG d   1      -6.511  93.871 118.244  0.00  0.00     0.119 C 
BRANCH   8   9
ATOM      9  C   LIG d   1      -7.902  94.295 117.735  0.00  0.00     0.028 C 
ATOM     10  C   LIG d   1      -7.964  94.383 116.201  0.00  0.00     0.006 C 
ENDBRANCH   8   9
BRANCH   8  11
ATOM     11  C   LIG d   1      -6.262  94.715 119.497  0.00  0.00     0.028 C 
ATOM     12  C   LIG d   1      -5.704  96.110 119.174  0.00  0.00     0.006 C 
ENDBRANCH   8  11
ENDBRANCH   7   8
ENDBRANCH   1   7
BRANCH   6  13
ATOM     13  N   LIG d   1      -2.688  94.174 118.137  0.00  0.00    -0.311 N 
ATOM     14  C   LIG d   1      -2.273  94.781 119.247  0.00  0.00     0.210 C 
ATOM     15  C   LIG d   1      -1.338  95.973 119.021  0.00  0.00     0.109 C 
ATOM     16  O   LIG d   1      -2.566  94.426 120.399  0.00  0.00    -0.276 OA
ATOM     17  H   LIG d   1      -2.376  94.508 117.246  0.00  0.00     0.149 HD
ENDBRANCH   6  13
BRANCH   5  18
ATOM     18  N   LIG d   1      -2.036  91.424 119.298  0.00  0.00     0.381 N 
ATOM     19  H   LIG d   1      -1.245  90.861 119.058  0.00  0.00    -0.090 HD
ATOM     20  H   LIG d   1      -2.583  90.927 119.978  0.00  0.00    -0.090 HD
ATOM     21  H   LIG d   1      -1.730  92.293 119.678  0.00  0.00    -0.090 HD
ENDBRANCH   5  18
BRANCH   3  22
ATOM     22  C   LIG d   1      -5.356  89.569 116.387  0.00  0.00     0.382 C 
ATOM     23  O   LIG d   1      -6.595  89.373 116.418  0.00  0.00    -0.241 OA
ATOM     24  O   LIG d   1      -4.613  88.721 115.857  0.00  0.00    -0.241 OA
ENDBRANCH   3  22
TORSDOF 7
ENDMDL
MODEL 9
REMARK VINA RESULT:      -4.7     17.423     20.133
REMARK  7 active torsions:
REMARK  status: ('A' for Active; 'I' for Inactive)
REMARK    1  A    between atoms: C_2  and  C_3 
REMARK    2  A    between atoms: C_3  and  O_6 
REMARK    3  A    between atoms: C_3  and  C_4 
REMARK    4  A    between atoms: C_7  and  O_6 
REMARK    5  A    between atoms: C_9  and  C_10 
REMARK    6  A    between atoms: N_15  and  C_14 
REMARK    7  A    between atoms: N_20  and  C_19 
REMARK       I    between atoms: C_22  and  N_20 
ROOT
ATOM      1  C   LIG d   1       9.658  79.078 114.810  0.00  0.00     0.161 C 
ATOM      2  C   LIG d   1       8.319  79.112 115.236  0.00  0.00     0.016 C 
ATOM      3  C   LIG d   1       7.593  77.960 115.614  0.00  0.00     0.038 C 
ATOM      4  C   LIG d   1       8.206  76.704 115.737  0.00  0.00     0.028 C 
ATOM      5  C   LIG d   1       9.423  76.534 114.834  0.00  0.00    -0.047 C 
ATOM      6  C   LIG d   1      10.376  77.732 115.044  0.00  0.00     0.091 C 
ENDROOT
BRANCH   1   7
ATOM      7  O   LIG d   1      10.394  80.153 115.426  0.00  0.00    -0.368 OA
BRANCH   7   8
ATOM      8  C   LIG d   1      10.367  81.424 114.731  0.00  0.00     0.119 C 
BRANCH   8   9
ATOM      9  C   LIG d   1      11.627  81.495 113.847  0.00  0.00     0.028 C 
ATOM     10  C   LIG d   1      12.925  81.458 114.670  0.00  0.00     0.006 C 
ENDBRANCH   8   9
BRANCH   8  11
ATOM     11  C   LIG d   1      10.492  82.596 115.709  0.00  0.00     0.028 C 
ATOM     12  C   LIG d   1       9.584  83.780 115.339  0.00  0.00     0.006 C 
ENDBRANCH   8  11
ENDBRANCH   7   8
ENDBRANCH   1   7
BRANCH   6  13
ATOM     13  N   LIG d   1      11.552  77.687 114.136  0.00  0.00    -0.311 N 
ATOM     14  C   LIG d   1      12.812  77.702 114.568  0.00  0.00     0.210 C 
ATOM     15  C   LIG d   1      13.874  77.669 113.465  0.00  0.00     0.109 C 
ATOM     16  O   LIG d   1      13.151  77.708 115.761  0.00  0.00    -0.276 OA
ATOM     17  H   LIG d   1      11.369  77.650 113.153  0.00  0.00     0.149 HD
ENDBRANCH   6  13
BRANCH   5  18
ATOM     18  N   LIG d   1      10.044  75.237 115.163  0.00  0.00     0.381 N 
ATOM     19  H   LIG d   1       9.341  74.528 115.215  0.00  0.00    -0.090 HD
ATOM     20  H   LIG d   1      10.488  75.308 116.062  0.00  0.00    -0.090 HD
ATOM     21  H   LIG d   1      10.718  74.996 114.470  0.00  0.00    -0.090 HD
ENDBRANCH   5  18
BRANCH   3  22
ATOM     22  C   LIG d   1       6.227  78.050 115.836  0.00  0.00     0.382 C 
ATOM     23  O   LIG d   1       5.578  77.031 116.171  0.00  0.00    -0.241 OA
ATOM     24  O   LIG d   1       5.629  79.129 115.661  0.00  0.00    -0.241 OA
ENDBRANCH   3  22
TORSDOF 7
ENDMDL
