MODEL 1
REMARK VINA RESULT:      -6.0      0.000      0.000
REMARK  7 active torsions:
REMARK  status: ('A' for Active; 'I' for Inactive)
REMARK    1  A    between atoms: C_2  and  C_3 
REMARK    2  A    between atoms: C_3  and  O_6 
REMARK    3  A    between atoms: C_3  and  C_4 
REMARK    4  A    between atoms: C_7  and  O_6 
REMARK    5  A    between atoms: C_9  and  C_10 
REMARK    6  A    between atoms: N_15  and  C_14 
REMARK    7  A    between atoms: N_20  and  C_19 
REMARK       I    between atoms: C_22  and  N_20 
ROOT
ATOM      1  C   LIG d   1      -7.403  76.061 116.480  0.00  0.00     0.161 C 
ATOM      2  C   LIG d   1      -6.504  75.499 115.559  0.00  0.00     0.016 C 
ATOM      3  C   LIG d   1      -5.291  76.117 115.179  0.00  0.00     0.038 C 
ATOM      4  C   LIG d   1      -4.818  77.275 115.815  0.00  0.00     0.028 C 
ATOM      5  C   LIG d   1      -5.930  78.147 116.390  0.00  0.00    -0.047 C 
ATOM      6  C   LIG d   1      -6.852  77.269 117.266  0.00  0.00     0.091 C 
ENDROOT
BRANCH   1   7
ATOM      7  O   LIG d   1      -7.871  75.044 117.388  0.00  0.00    -0.368 OA
BRANCH   7   8
ATOM      8  C   LIG d   1      -8.261  73.784 116.788  0.00  0.00     0.119 C 
BRANCH   8   9
ATOM      9  C   LIG d   1      -9.755  73.568 117.095  0.00  0.00     0.028 C 
ATOM     10  C   LIG d   1     -10.631  74.731 116.599  0.00  0.00     0.006 C 
ENDBRANCH   8   9
BRANCH   8  11
ATOM     11  C   LIG d   1      -7.537  72.606 117.446  0.00  0.00     0.028 C 
ATOM     12  C   LIG d   1      -6.974  71.606 116.423  0.00  0.00     0.006 C 
ENDBRANCH   8  11
ENDBRANCH   7   8
ENDBRANCH   1   7
BRANCH   6  13
ATOM     13  N   LIG d   1      -8.015  78.026 117.800  0.00  0.00    -0.311 N 
ATOM     14  C   LIG d   1      -8.240  78.202 119.101  0.00  0.00     0.210 C 
ATOM     15  C   LIG d   1      -9.506  78.996 119.437  0.00  0.00     0.109 C 
ATOM     16  O   LIG d   1      -7.493  77.804 120.008  0.00  0.00    -0.276 OA
ATOM     17  H   LIG d   1      -8.654  78.410 117.133  0.00  0.00     0.149 HD
ENDBRANCH   6  13
BRANCH   5  18
ATOM     18  N   LIG d   1      -5.292  79.244 117.141  0.00  0.00     0.381 N 
ATOM     19  H   LIG d   1      -5.743  79.355 118.027  0.00  0.00    -0.090 HD
ATOM     20  H   LIG d   1      -5.401  80.099 116.623  0.00  0.00    -0.090 HD
ATOM     21  H   LIG d   1      -4.324  79.049 117.274  0.00  0.00    -0.090 HD
ENDBRANCH   5  18
BRANCH   3  22
ATOM     22  C   LIG d   1      -4.554  75.597 114.126  0.00  0.00     0.382 C 
ATOM     23  O   LIG d   1      -3.946  76.369 113.345  0.00  0.00    -0.241 OA
ATOM     24  O   LIG d   1      -4.527  74.369 113.919  0.00  0.00    -0.241 OA
ENDBRANCH   3  22
TORSDOF 7
ENDMDL
MODEL 2
REMARK VINA RESULT:      -5.8      1.720      4.822
REMARK  7 active torsions:
REMARK  status: ('A' for Active; 'I' for Inactive)
REMARK    1  A    between atoms: C_2  and  C_3 
REMARK    2  A    between atoms: C_3  and  O_6 
REMARK    3  A    between atoms: C_3  and  C_4 
REMARK    4  A    between atoms: C_7  and  O_6 
REMARK    5  A    between atoms: C_9  and  C_10 
REMARK    6  A    between atoms: N_15  and  C_14 
REMARK    7  A    between atoms: N_20  and  C_19 
REMARK       I    between atoms: C_22  and  N_20 
ROOT
ATOM      1  C   LIG d   1      -7.215  76.254 117.525  0.00  0.00     0.161 C 
ATOM      2  C   LIG d   1      -8.359  76.967 117.922  0.00  0.00     0.016 C 
ATOM      3  C   LIG d   1      -8.417  78.378 117.976  0.00  0.00     0.038 C 
ATOM      4  C   LIG d   1      -7.376  79.182 117.487  0.00  0.00     0.028 C 
ATOM      5  C   LIG d   1      -6.010  78.508 117.548  0.00  0.00    -0.047 C 
ATOM      6  C   LIG d   1      -6.108  77.116 116.882  0.00  0.00     0.091 C 
ENDROOT
BRANCH   1   7
ATOM      7  O   LIG d   1      -7.591  75.181 116.640  0.00  0.00    -0.368 OA
BRANCH   7   8
ATOM      8  C   LIG d   1      -7.640  73.858 117.228  0.00  0.00     0.119 C 
BRANCH   8   9
ATOM      9  C   LIG d   1      -6.726  72.944 116.390  0.00  0.00     0.028 C 
ATOM     10  C   LIG d   1      -7.208  71.483 116.376  0.00  0.00     0.006 C 
ENDBRANCH   8   9
BRANCH   8  11
ATOM     11  C   LIG d   1      -9.040  73.247 117.112  0.00  0.00     0.028 C 
ATOM     12  C   LIG d   1     -10.082  74.244 116.580  0.00  0.00     0.006 C 
ENDBRANCH   8  11
ENDBRANCH   7   8
ENDBRANCH   1   7
BRANCH   6  13
ATOM     13  N   LIG d   1      -4.835  76.354 116.974  0.00  0.00    -0.311 N 
ATOM     14  C   LIG d   1      -4.232  75.805 115.920  0.00  0.00     0.210 C 
ATOM     15  C   LIG d   1      -2.940  75.046 116.238  0.00  0.00     0.109 C 
ATOM     16  O   LIG d   1      -4.627  75.903 114.749  0.00  0.00    -0.276 OA
ATOM     17  H   LIG d   1      -4.428  76.252 117.883  0.00  0.00     0.149 HD
ENDBRANCH   6  13
BRANCH   5  18
ATOM     18  N   LIG d   1      -5.042  79.400 116.882  0.00  0.00     0.381 N 
ATOM     19  H   LIG d   1      -4.500  79.885 117.570  0.00  0.00    -0.090 HD
ATOM     20  H   LIG d   1      -5.547  80.081 116.341  0.00  0.00    -0.090 HD
ATOM     21  H   LIG d   1      -4.443  78.871 116.288  0.00  0.00    -0.090 HD
ENDBRANCH   5  18
BRANCH   3  22
ATOM     22  C   LIG d   1      -9.510  78.999 118.560  0.00  0.00     0.382 C 
ATOM     23  O   LIG d   1      -9.950  80.073 118.083  0.00  0.00    -0.241 OA
ATOM     24  O   LIG d   1     -10.035  78.523 119.584  0.00  0.00    -0.241 OA
ENDBRANCH   3  22
TORSDOF 7
ENDMDL
MODEL 3
REMARK VINA RESULT:      -5.6      2.132      4.585
REMARK  7 active torsions:
REMARK  status: ('A' for Active; 'I' for Inactive)
REMARK    1  A    between atoms: C_2  and  C_3 
REMARK    2  A    between atoms: C_3  and  O_6 
REMARK    3  A    between atoms: C_3  and  C_4 
REMARK    4  A    between atoms: C_7  and  O_6 
REMARK    5  A    between atoms: C_9  and  C_10 
REMARK    6  A    between atoms: N_15  and  C_14 
REMARK    7  A    between atoms: N_20  and  C_19 
REMARK       I    between atoms: C_22  and  N_20 
ROOT
ATOM      1  C   LIG d   1      -6.291  76.114 117.493  0.00  0.00     0.161 C 
ATOM      2  C   LIG d   1      -7.162  75.081 117.108  0.00  0.00     0.016 C 
ATOM      3  C   LIG d   1      -8.560  75.250 116.978  0.00  0.00     0.038 C 
ATOM      4  C   LIG d   1      -9.167  76.511 117.079  0.00  0.00     0.028 C 
ATOM      5  C   LIG d   1      -8.396  77.486 117.961  0.00  0.00    -0.047 C 
ATOM      6  C   LIG d   1      -6.921  77.523 117.499  0.00  0.00     0.091 C 
ENDROOT
BRANCH   1   7
ATOM      7  O   LIG d   1      -5.114  76.095 116.662  0.00  0.00    -0.368 OA
BRANCH   7   8
ATOM      8  C   LIG d   1      -5.175  75.248 115.488  0.00  0.00     0.119 C 
BRANCH   8   9
ATOM      9  C   LIG d   1      -3.856  74.455 115.420  0.00  0.00     0.028 C 
ATOM     10  C   LIG d   1      -2.697  75.183 116.121  0.00  0.00     0.006 C 
ENDBRANCH   8   9
BRANCH   8  11
ATOM     11  C   LIG d   1      -5.216  76.078 114.202  0.00  0.00     0.028 C 
ATOM     12  C   LIG d   1      -6.644  76.290 113.675  0.00  0.00     0.006 C 
ENDBRANCH   8  11
ENDBRANCH   7   8
ENDBRANCH   1   7
BRANCH   6  13
ATOM     13  N   LIG d   1      -6.077  78.389 118.362  0.00  0.00    -0.311 N 
ATOM     14  C   LIG d   1      -5.820  79.667 118.091  0.00  0.00     0.210 C 
ATOM     15  C   LIG d   1      -4.911  80.373 119.102  0.00  0.00     0.109 C 
ATOM     16  O   LIG d   1      -6.285  80.292 117.126  0.00  0.00    -0.276 OA
ATOM     17  H   LIG d   1      -5.685  77.971 119.183  0.00  0.00     0.149 HD
ENDBRANCH   6  13
BRANCH   5  18
ATOM     18  N   LIG d   1      -9.064  78.797 117.867  0.00  0.00     0.381 N 
ATOM     19  H   LIG d   1      -9.839  78.738 117.237  0.00  0.00    -0.090 HD
ATOM     20  H   LIG d   1      -8.412  79.469 117.502  0.00  0.00    -0.090 HD
ATOM     21  H   LIG d   1      -9.379  79.085 118.767  0.00  0.00    -0.090 HD
ENDBRANCH   5  18
BRANCH   3  22
ATOM     22  C   LIG d   1      -9.371  74.142 116.784  0.00  0.00     0.382 C 
ATOM     23  O   LIG d   1     -10.595  74.294 116.556  0.00  0.00    -0.241 OA
ATOM     24  O   LIG d   1      -8.902  72.992 116.878  0.00  0.00    -0.241 OA
ENDBRANCH   3  22
TORSDOF 7
ENDMDL
MODEL 4
REMARK VINA RESULT:      -5.3      2.227      5.485
REMARK  7 active torsions:
REMARK  status: ('A' for Active; 'I' for Inactive)
REMARK    1  A    between atoms: C_2  and  C_3 
REMARK    2  A    between atoms: C_3  and  O_6 
REMARK    3  A    between atoms: C_3  and  C_4 
REMARK    4  A    between atoms: C_7  and  O_6 
REMARK    5  A    between atoms: C_9  and  C_10 
REMARK    6  A    between atoms: N_15  and  C_14 
REMARK    7  A    between atoms: N_20  and  C_19 
REMARK       I    between atoms: C_22  and  N_20 
ROOT
ATOM      1  C   LIG d   1      -7.215  77.043 116.764  0.00  0.00     0.161 C 
ATOM      2  C   LIG d   1      -8.240  76.118 117.026  0.00  0.00     0.016 C 
ATOM      3  C   LIG d   1      -8.105  74.727 116.816  0.00  0.00     0.038 C 
ATOM      4  C   LIG d   1      -6.877  74.144 116.470  0.00  0.00     0.028 C 
ATOM      5  C   LIG d   1      -5.952  75.088 115.708  0.00  0.00    -0.047 C 
ATOM      6  C   LIG d   1      -5.832  76.415 116.492  0.00  0.00     0.091 C 
ENDROOT
BRANCH   1   7
ATOM      7  O   LIG d   1      -7.129  77.996 117.841  0.00  0.00    -0.368 OA
BRANCH   7   8
ATOM      8  C   LIG d   1      -7.690  79.306 117.580  0.00  0.00     0.119 C 
BRANCH   8   9
ATOM      9  C   LIG d   1      -6.618  80.350 117.949  0.00  0.00     0.028 C 
ATOM     10  C   LIG d   1      -5.366  79.711 118.572  0.00  0.00     0.006 C 
ENDBRANCH   8   9
BRANCH   8  11
ATOM     11  C   LIG d   1      -8.876  79.599 118.503  0.00  0.00     0.028 C 
ATOM     12  C   LIG d   1      -8.916  78.678 119.733  0.00  0.00     0.006 C 
ENDBRANCH   8  11
ENDBRANCH   7   8
ENDBRANCH   1   7
BRANCH   6  13
ATOM     13  N   LIG d   1      -5.012  77.425 115.773  0.00  0.00    -0.311 N 
ATOM     14  C   LIG d   1      -3.708  77.596 115.984  0.00  0.00     0.210 C 
ATOM     15  C   LIG d   1      -3.059  78.706 115.152  0.00  0.00     0.109 C 
ATOM     16  O   LIG d   1      -3.022  76.912 116.758  0.00  0.00    -0.276 OA
ATOM     17  H   LIG d   1      -5.483  78.002 115.105  0.00  0.00     0.149 HD
ENDBRANCH   6  13
BRANCH   5  18
ATOM     18  N   LIG d   1      -4.659  74.400 115.533  0.00  0.00     0.381 N 
ATOM     19  H   LIG d   1      -4.295  74.590 114.620  0.00  0.00    -0.090 HD
ATOM     20  H   LIG d   1      -4.805  73.409 115.614  0.00  0.00    -0.090 HD
ATOM     21  H   LIG d   1      -4.013  74.707 116.226  0.00  0.00    -0.090 HD
ENDBRANCH   5  18
BRANCH   3  22
ATOM     22  C   LIG d   1      -9.219  73.906 116.914  0.00  0.00     0.382 C 
ATOM     23  O   LIG d   1     -10.335  74.313 116.510  0.00  0.00    -0.241 OA
ATOM     24  O   LIG d   1      -9.130  72.781 117.441  0.00  0.00    -0.241 OA
ENDBRANCH   3  22
TORSDOF 7
ENDMDL
MODEL 5
REMARK VINA RESULT:      -5.2      2.592      5.704
REMARK  7 active torsions:
REMARK  status: ('A' for Active; 'I' for Inactive)
REMARK    1  A    between atoms: C_2  and  C_3 
REMARK    2  A    between atoms: C_3  and  O_6 
REMARK    3  A    between atoms: C_3  and  C_4 
REMARK    4  A    between atoms: C_7  and  O_6 
REMARK    5  A    between atoms: C_9  and  C_10 
REMARK    6  A    between atoms: N_15  and  C_14 
REMARK    7  A    between atoms: N_20  and  C_19 
REMARK       I    between atoms: C_22  and  N_20 
ROOT
ATOM      1  C   LIG d   1      -6.287  77.277 116.078  0.00  0.00     0.161 C 
ATOM      2  C   LIG d   1      -7.588  76.921 116.469  0.00  0.00     0.016 C 
ATOM      3  C   LIG d   1      -8.047  75.584 116.521  0.00  0.00     0.038 C 
ATOM      4  C   LIG d   1      -7.182  74.496 116.330  0.00  0.00     0.028 C 
ATOM      5  C   LIG d   1      -5.987  74.821 115.440  0.00  0.00    -0.047 C 
ATOM      6  C   LIG d   1      -5.297  76.098 115.973  0.00  0.00     0.091 C 
ENDROOT
BRANCH   1   7
ATOM      7  O   LIG d   1      -5.770  78.288 116.966  0.00  0.00    -0.368 OA
BRANCH   7   8
ATOM      8  C   LIG d   1      -6.137  78.158 118.362  0.00  0.00     0.119 C 
BRANCH   8   9
ATOM      9  C   LIG d   1      -6.709  79.514 118.818  0.00  0.00     0.028 C 
ATOM     10  C   LIG d   1      -6.607  80.592 117.726  0.00  0.00     0.006 C 
ENDBRANCH   8   9
BRANCH   8  11
ATOM     11  C   LIG d   1      -4.907  77.920 119.242  0.00  0.00     0.028 C 
ATOM     12  C   LIG d   1      -3.587  78.232 118.518  0.00  0.00     0.006 C 
ENDBRANCH   8  11
ENDBRANCH   7   8
ENDBRANCH   1   7
BRANCH   6  13
ATOM     13  N   LIG d   1      -4.168  76.534 115.112  0.00  0.00    -0.311 N 
ATOM     14  C   LIG d   1      -2.902  76.181 115.328  0.00  0.00     0.210 C 
ATOM     15  C   LIG d   1      -1.891  76.757 114.331  0.00  0.00     0.109 C 
ATOM     16  O   LIG d   1      -2.524  75.419 116.231  0.00  0.00    -0.276 OA
ATOM     17  H   LIG d   1      -4.388  77.129 114.337  0.00  0.00     0.149 HD
ENDBRANCH   6  13
BRANCH   5  18
ATOM     18  N   LIG d   1      -5.099  73.643 115.438  0.00  0.00     0.381 N 
ATOM     19  H   LIG d   1      -4.498  73.670 116.238  0.00  0.00    -0.090 HD
ATOM     20  H   LIG d   1      -4.527  73.669 114.613  0.00  0.00    -0.090 HD
ATOM     21  H   LIG d   1      -5.641  72.807 115.449  0.00  0.00    -0.090 HD
ENDBRANCH   5  18
BRANCH   3  22
ATOM     22  C   LIG d   1      -9.393  75.327 116.728  0.00  0.00     0.382 C 
ATOM     23  O   LIG d   1      -9.847  74.172 116.540  0.00  0.00    -0.241 OA
ATOM     24  O   LIG d   1     -10.169  76.244 117.056  0.00  0.00    -0.241 OA
ENDBRANCH   3  22
TORSDOF 7
ENDMDL
MODEL 6
REMARK VINA RESULT:      -5.0      2.593      3.889
REMARK  7 active torsions:
REMARK  status: ('A' for Active; 'I' for Inactive)
REMARK    1  A    between atoms: C_2  and  C_3 
REMARK    2  A    between atoms: C_3  and  O_6 
REMARK    3  A    between atoms: C_3  and  C_4 
REMARK    4  A    between atoms: C_7  and  O_6 
REMARK    5  A    between atoms: C_9  and  C_10 
REMARK    6  A    between atoms: N_15  and  C_14 
REMARK    7  A    between atoms: N_20  and  C_19 
REMARK       I    between atoms: C_22  and  N_20 
ROOT
ATOM      1  C   LIG d   1      -5.723  78.464 116.902  0.00  0.00     0.161 C 
ATOM      2  C   LIG d   1      -4.531  77.763 117.149  0.00  0.00     0.016 C 
ATOM      3  C   LIG d   1      -4.126  77.347 118.439  0.00  0.00     0.038 C 
ATOM      4  C   LIG d   1      -4.965  77.473 119.556  0.00  0.00     0.028 C 
ATOM      5  C   LIG d   1      -5.956  78.626 119.442  0.00  0.00    -0.047 C 
ATOM      6  C   LIG d   1      -6.703  78.513 118.093  0.00  0.00     0.091 C 
ENDROOT
BRANCH   1   7
ATOM      7  O   LIG d   1      -6.376  77.923 115.737  0.00  0.00    -0.368 OA
BRANCH   7   8
ATOM      8  C   LIG d   1      -6.476  76.478 115.676  0.00  0.00     0.119 C 
BRANCH   8   9
ATOM      9  C   LIG d   1      -6.169  76.054 114.227  0.00  0.00     0.028 C 
ATOM     10  C   LIG d   1      -4.949  75.122 114.134  0.00  0.00     0.006 C 
ENDBRANCH   8   9
BRANCH   8  11
ATOM     11  C   LIG d   1      -7.908  76.007 115.942  0.00  0.00     0.028 C 
ATOM     12  C   LIG d   1      -7.975  74.832 116.931  0.00  0.00     0.006 C 
ENDBRANCH   8  11
ENDBRANCH   7   8
ENDBRANCH   1   7
BRANCH   6  13
ATOM     13  N   LIG d   1      -7.633  79.650 117.863  0.00  0.00    -0.311 N 
ATOM     14  C   LIG d   1      -8.932  79.604 118.152  0.00  0.00     0.210 C 
ATOM     15  C   LIG d   1      -9.714  80.878 117.818  0.00  0.00     0.109 C 
ATOM     16  O   LIG d   1      -9.505  78.640 118.682  0.00  0.00    -0.276 OA
ATOM     17  H   LIG d   1      -7.246  80.483 117.465  0.00  0.00     0.149 HD
ENDBRANCH   6  13
BRANCH   5  18
ATOM     18  N   LIG d   1      -6.856  78.557 120.608  0.00  0.00     0.381 N 
ATOM     19  H   LIG d   1      -7.491  77.791 120.501  0.00  0.00    -0.090 HD
ATOM     20  H   LIG d   1      -7.392  79.406 120.657  0.00  0.00    -0.090 HD
ATOM     21  H   LIG d   1      -6.325  78.443 121.443  0.00  0.00    -0.090 HD
ENDBRANCH   5  18
BRANCH   3  22
ATOM     22  C   LIG d   1      -2.852  76.833 118.626  0.00  0.00     0.382 C 
ATOM     23  O   LIG d   1      -2.350  76.071 117.765  0.00  0.00    -0.241 OA
ATOM     24  O   LIG d   1      -2.215  77.086 119.666  0.00  0.00    -0.241 OA
ENDBRANCH   3  22
TORSDOF 7
ENDMDL
MODEL 7
REMARK VINA RESULT:      -4.9      2.331      5.061
REMARK  7 active torsions:
REMARK  status: ('A' for Active; 'I' for Inactive)
REMARK    1  A    between atoms: C_2  and  C_3 
REMARK    2  A    between atoms: C_3  and  O_6 
REMARK    3  A    between atoms: C_3  and  C_4 
REMARK    4  A    between atoms: C_7  and  O_6 
REMARK    5  A    between atoms: C_9  and  C_10 
REMARK    6  A    between atoms: N_15  and  C_14 
REMARK    7  A    between atoms: N_20  and  C_19 
REMARK       I    between atoms: C_22  and  N_20 
ROOT
ATOM      1  C   LIG d   1      -6.467  77.411 116.920  0.00  0.00     0.161 C 
ATOM      2  C   LIG d   1      -6.970  76.134 116.621  0.00  0.00     0.016 C 
ATOM      3  C   LIG d   1      -8.304  75.743 116.881  0.00  0.00     0.038 C 
ATOM      4  C   LIG d   1      -9.272  76.657 117.322  0.00  0.00     0.028 C 
ATOM      5  C   LIG d   1      -8.689  77.822 118.114  0.00  0.00    -0.047 C 
ATOM      6  C   LIG d   1      -7.538  78.456 117.299  0.00  0.00     0.091 C 
ENDROOT
BRANCH   1   7
ATOM      7  O   LIG d   1      -5.667  77.891 115.822  0.00  0.00    -0.368 OA
BRANCH   7   8
ATOM      8  C   LIG d   1      -4.246  78.017 116.076  0.00  0.00     0.119 C 
BRANCH   8   9
ATOM      9  C   LIG d   1      -3.532  76.913 115.273  0.00  0.00     0.028 C 
ATOM     10  C   LIG d   1      -2.608  77.484 114.183  0.00  0.00     0.006 C 
ENDBRANCH   8   9
BRANCH   8  11
ATOM     11  C   LIG d   1      -3.915  77.730 117.544  0.00  0.00     0.028 C 
ATOM     12  C   LIG d   1      -3.250  78.922 118.249  0.00  0.00     0.006 C 
ENDBRANCH   8  11
ENDBRANCH   7   8
ENDBRANCH   1   7
BRANCH   6  13
ATOM     13  N   LIG d   1      -6.857  79.551 118.038  0.00  0.00    -0.311 N 
ATOM     14  C   LIG d   1      -7.187  80.835 117.913  0.00  0.00     0.210 C 
ATOM     15  C   LIG d   1      -6.344  81.803 118.750  0.00  0.00     0.109 C 
ATOM     16  O   LIG d   1      -8.119  81.261 117.215  0.00  0.00    -0.276 OA
ATOM     17  H   LIG d   1      -6.109  79.291 118.651  0.00  0.00     0.149 HD
ENDBRANCH   6  13
BRANCH   5  18
ATOM     18  N   LIG d   1      -9.788  78.766 118.392  0.00  0.00     0.381 N 
ATOM     19  H   LIG d   1     -10.520  78.641 117.722  0.00  0.00    -0.090 HD
ATOM     20  H   LIG d   1      -9.439  79.705 118.308  0.00  0.00    -0.090 HD
ATOM     21  H   LIG d   1     -10.141  78.616 119.312  0.00  0.00    -0.090 HD
ENDBRANCH   5  18
BRANCH   3  22
ATOM     22  C   LIG d   1      -8.670  74.413 116.737  0.00  0.00     0.382 C 
ATOM     23  O   LIG d   1      -9.863  74.115 116.487  0.00  0.00    -0.241 OA
ATOM     24  O   LIG d   1      -7.832  73.506 116.897  0.00  0.00    -0.241 OA
ENDBRANCH   3  22
TORSDOF 7
ENDMDL
MODEL 8
REMARK VINA RESULT:      -4.8      2.758      6.339
REMARK  7 active torsions:
REMARK  status: ('A' for Active; 'I' for Inactive)
REMARK    1  A    between atoms: C_2  and  C_3 
REMARK    2  A    between atoms: C_3  and  O_6 
REMARK    3  A    between atoms: C_3  and  C_4 
REMARK    4  A    between atoms: C_7  and  O_6 
REMARK    5  A    between atoms: C_9  and  C_10 
REMARK    6  A    between atoms: N_15  and  C_14 
REMARK    7  A    between atoms: N_20  and  C_19 
REMARK       I    between atoms: C_22  and  N_20 
ROOT
ATOM      1  C   LIG d   1      -5.610  77.846 116.881  0.00  0.00     0.161 C 
ATOM      2  C   LIG d   1      -6.920  77.559 117.298  0.00  0.00     0.016 C 
ATOM      3  C   LIG d   1      -7.764  76.639 116.635  0.00  0.00     0.038 C 
ATOM      4  C   LIG d   1      -7.299  75.825 115.592  0.00  0.00     0.028 C 
ATOM      5  C   LIG d   1      -6.141  76.440 114.814  0.00  0.00    -0.047 C 
ATOM      6  C   LIG d   1      -5.047  76.886 115.811  0.00  0.00     0.091 C 
ENDROOT
BRANCH   1   7
ATOM      7  O   LIG d   1      -4.732  77.893 118.023  0.00  0.00    -0.368 OA
BRANCH   7   8
ATOM      8  C   LIG d   1      -4.050  79.151 118.252  0.00  0.00     0.119 C 
BRANCH   8   9
ATOM      9  C   LIG d   1      -2.536  78.870 118.210  0.00  0.00     0.028 C 
ATOM     10  C   LIG d   1      -2.207  77.386 118.447  0.00  0.00     0.006 C 
ENDBRANCH   8   9
BRANCH   8  11
ATOM     11  C   LIG d   1      -4.325  79.686 119.660  0.00  0.00     0.028 C 
ATOM     12  C   LIG d   1      -5.484  80.695 119.699  0.00  0.00     0.006 C 
ENDBRANCH   8  11
ENDBRANCH   7   8
ENDBRANCH   1   7
BRANCH   6  13
ATOM     13  N   LIG d   1      -3.914  77.575 115.140  0.00  0.00    -0.311 N 
ATOM     14  C   LIG d   1      -2.852  76.936 114.653  0.00  0.00     0.210 C 
ATOM     15  C   LIG d   1      -1.789  77.838 114.018  0.00  0.00     0.109 C 
ATOM     16  O   LIG d   1      -2.704  75.705 114.659  0.00  0.00    -0.276 OA
ATOM     17  H   LIG d   1      -3.967  78.572 115.064  0.00  0.00     0.149 HD
ENDBRANCH   6  13
BRANCH   5  18
ATOM     18  N   LIG d   1      -5.666  75.431 113.849  0.00  0.00     0.381 N 
ATOM     19  H   LIG d   1      -5.215  74.683 114.336  0.00  0.00    -0.090 HD
ATOM     20  H   LIG d   1      -4.995  75.858 113.235  0.00  0.00    -0.090 HD
ATOM     21  H   LIG d   1      -6.433  75.078 113.319  0.00  0.00    -0.090 HD
ENDBRANCH   5  18
BRANCH   3  22
ATOM     22  C   LIG d   1      -9.102  76.555 116.990  0.00  0.00     0.382 C 
ATOM     23  O   LIG d   1      -9.797  75.590 116.589  0.00  0.00    -0.241 OA
ATOM     24  O   LIG d   1      -9.633  77.453 117.669  0.00  0.00    -0.241 OA
ENDBRANCH   3  22
TORSDOF 7
ENDMDL
MODEL 9
REMARK VINA RESULT:      -4.8     14.502     16.670
REMARK  7 active torsions:
REMARK  status: ('A' for Active; 'I' for Inactive)
REMARK    1  A    between atoms: C_2  and  C_3 
REMARK    2  A    between atoms: C_3  and  O_6 
REMARK    3  A    between atoms: C_3  and  C_4 
REMARK    4  A    between atoms: C_7  and  O_6 
REMARK    5  A    between atoms: C_9  and  C_10 
REMARK    6  A    between atoms: N_15  and  C_14 
REMARK    7  A    between atoms: N_20  and  C_19 
REMARK       I    between atoms: C_22  and  N_20 
ROOT
ATOM      1  C   LIG d   1       0.434  90.822 116.689  0.00  0.00     0.161 C 
ATOM      2  C   LIG d   1       1.839  90.807 116.656  0.00  0.00     0.016 C 
ATOM      3  C   LIG d   1       2.646  91.556 117.543  0.00  0.00     0.038 C 
ATOM      4  C   LIG d   1       2.101  92.258 118.628  0.00  0.00     0.028 C 
ATOM      5  C   LIG d   1       0.663  92.709 118.397  0.00  0.00    -0.047 C 
ATOM      6  C   LIG d   1      -0.176  91.495 117.936  0.00  0.00     0.091 C 
ENDROOT
BRANCH   1   7
ATOM      7  O   LIG d   1      -0.072  89.480 116.545  0.00  0.00    -0.368 OA
BRANCH   7   8
ATOM      8  C   LIG d   1      -0.355  88.770 117.776  0.00  0.00     0.119 C 
BRANCH   8   9
ATOM      9  C   LIG d   1       0.545  87.519 117.806  0.00  0.00     0.028 C 
ATOM     10  C   LIG d   1       0.894  87.014 116.396  0.00  0.00     0.006 C 
ENDBRANCH   8   9
BRANCH   8  11
ATOM     11  C   LIG d   1      -1.791  88.238 117.795  0.00  0.00     0.028 C 
ATOM     12  C   LIG d   1      -2.260  87.839 119.203  0.00  0.00     0.006 C 
ENDBRANCH   8  11
ENDBRANCH   7   8
ENDBRANCH   1   7
BRANCH   6  13
ATOM     13  N   LIG d   1      -1.577  91.866 117.607  0.00  0.00    -0.311 N 
ATOM     14  C   LIG d   1      -2.585  91.762 118.471  0.00  0.00     0.210 C 
ATOM     15  C   LIG d   1      -3.953  92.179 117.922  0.00  0.00     0.109 C 
ATOM     16  O   LIG d   1      -2.471  91.394 119.650  0.00  0.00    -0.276 OA
ATOM     17  H   LIG d   1      -1.754  92.203 116.681  0.00  0.00     0.149 HD
ENDBRANCH   6  13
BRANCH   5  18
ATOM     18  N   LIG d   1       0.175  93.305 119.655  0.00  0.00     0.381 N 
ATOM     19  H   LIG d   1       0.274  94.300 119.620  0.00  0.00    -0.090 HD
ATOM     20  H   LIG d   1       0.732  92.959 120.416  0.00  0.00    -0.090 HD
ATOM     21  H   LIG d   1      -0.781  93.064 119.798  0.00  0.00    -0.090 HD
ENDBRANCH   5  18
BRANCH   3  22
ATOM     22  C   LIG d   1       4.013  91.639 117.324  0.00  0.00     0.382 C 
ATOM     23  O   LIG d   1       4.714  90.599 117.338  0.00  0.00    -0.241 OA
ATOM     24  O   LIG d   1       4.559  92.745 117.157  0.00  0.00    -0.241 OA
ENDBRANCH   3  22
TORSDOF 7
ENDMDL
