MODEL 1
REMARK VINA RESULT:      -5.8      0.000      0.000
REMARK  7 active torsions:
REMARK  status: ('A' for Active; 'I' for Inactive)
REMARK    1  A    between atoms: C_2  and  C_3 
REMARK    2  A    between atoms: C_3  and  O_6 
REMARK    3  A    between atoms: C_3  and  C_4 
REMARK    4  A    between atoms: C_7  and  O_6 
REMARK    5  A    between atoms: C_9  and  C_10 
REMARK    6  A    between atoms: N_15  and  C_14 
REMARK    7  A    between atoms: N_20  and  C_19 
REMARK       I    between atoms: C_22  and  N_20 
ROOT
ATOM      1  C   LIG d   1      -7.148  76.219 116.791  0.00  0.00     0.161 C 
ATOM      2  C   LIG d   1      -6.393  75.668 115.742  0.00  0.00     0.016 C 
ATOM      3  C   LIG d   1      -5.139  76.180 115.335  0.00  0.00     0.038 C 
ATOM      4  C   LIG d   1      -4.482  77.191 116.052  0.00  0.00     0.028 C 
ATOM      5  C   LIG d   1      -5.433  78.113 116.808  0.00  0.00    -0.047 C 
ATOM      6  C   LIG d   1      -6.397  77.252 117.656  0.00  0.00     0.091 C 
ENDROOT
BRANCH   1   7
ATOM      7  O   LIG d   1      -7.678  75.164 117.618  0.00  0.00    -0.368 OA
BRANCH   7   8
ATOM      8  C   LIG d   1      -8.057  73.945 116.931  0.00  0.00     0.119 C 
BRANCH   8   9
ATOM      9  C   LIG d   1      -9.546  73.687 117.233  0.00  0.00     0.028 C 
ATOM     10  C   LIG d   1      -9.875  72.188 117.324  0.00  0.00     0.006 C 
ENDBRANCH   8   9
BRANCH   8  11
ATOM     11  C   LIG d   1      -7.312  72.733 117.498  0.00  0.00     0.028 C 
ATOM     12  C   LIG d   1      -6.444  72.023 116.447  0.00  0.00     0.006 C 
ENDBRANCH   8  11
ENDBRANCH   7   8
ENDBRANCH   1   7
BRANCH   6  13
ATOM     13  N   LIG d   1      -7.415  78.072 118.363  0.00  0.00    -0.311 N 
ATOM     14  C   LIG d   1      -7.273  78.496 119.618  0.00  0.00     0.210 C 
ATOM     15  C   LIG d   1      -8.451  79.311 120.162  0.00  0.00     0.109 C 
ATOM     16  O   LIG d   1      -6.270  78.302 120.320  0.00  0.00    -0.276 OA
ATOM     17  H   LIG d   1      -8.248  78.302 117.856  0.00  0.00     0.149 HD
ENDBRANCH   6  13
BRANCH   5  18
ATOM     18  N   LIG d   1      -4.612  79.031 117.619  0.00  0.00     0.381 N 
ATOM     19  H   LIG d   1      -4.775  79.975 117.331  0.00  0.00    -0.090 HD
ATOM     20  H   LIG d   1      -3.641  78.818 117.469  0.00  0.00    -0.090 HD
ATOM     21  H   LIG d   1      -4.837  78.927 118.584  0.00  0.00    -0.090 HD
ENDBRANCH   5  18
BRANCH   3  22
ATOM     22  C   LIG d   1      -4.548  75.705 114.174  0.00  0.00     0.382 C 
ATOM     23  O   LIG d   1      -4.421  74.470 113.994  0.00  0.00    -0.241 OA
ATOM     24  O   LIG d   1      -4.100  76.498 113.323  0.00  0.00    -0.241 OA
ENDBRANCH   3  22
TORSDOF 7
ENDMDL
MODEL 2
REMARK VINA RESULT:      -5.5      2.060      4.955
REMARK  7 active torsions:
REMARK  status: ('A' for Active; 'I' for Inactive)
REMARK    1  A    between atoms: C_2  and  C_3 
REMARK    2  A    between atoms: C_3  and  O_6 
REMARK    3  A    between atoms: C_3  and  C_4 
REMARK    4  A    between atoms: C_7  and  O_6 
REMARK    5  A    between atoms: C_9  and  C_10 
REMARK    6  A    between atoms: N_15  and  C_14 
REMARK    7  A    between atoms: N_20  and  C_19 
REMARK       I    between atoms: C_22  and  N_20 
ROOT
ATOM      1  C   LIG d   1      -7.257  77.269 117.904  0.00  0.00     0.161 C 
ATOM      2  C   LIG d   1      -8.377  78.016 118.306  0.00  0.00     0.016 C 
ATOM      3  C   LIG d   1      -8.365  79.423 118.441  0.00  0.00     0.038 C 
ATOM      4  C   LIG d   1      -7.269  80.199 118.036  0.00  0.00     0.028 C 
ATOM      5  C   LIG d   1      -5.941  79.451 118.101  0.00  0.00    -0.047 C 
ATOM      6  C   LIG d   1      -6.085  78.107 117.351  0.00  0.00     0.091 C 
ENDROOT
BRANCH   1   7
ATOM      7  O   LIG d   1      -7.655  76.269 116.945  0.00  0.00    -0.368 OA
BRANCH   7   8
ATOM      8  C   LIG d   1      -7.624  74.896 117.406  0.00  0.00     0.119 C 
BRANCH   8   9
ATOM      9  C   LIG d   1      -6.594  74.141 116.544  0.00  0.00     0.028 C 
ATOM     10  C   LIG d   1      -6.696  72.616 116.709  0.00  0.00     0.006 C 
ENDBRANCH   8   9
BRANCH   8  11
ATOM     11  C   LIG d   1      -8.961  74.193 117.150  0.00  0.00     0.028 C 
ATOM     12  C   LIG d   1     -10.092  75.172 116.801  0.00  0.00     0.006 C 
ENDBRANCH   8  11
ENDBRANCH   7   8
ENDBRANCH   1   7
BRANCH   6  13
ATOM     13  N   LIG d   1      -4.857  77.275 117.438  0.00  0.00    -0.311 N 
ATOM     14  C   LIG d   1      -3.916  77.256 116.496  0.00  0.00     0.210 C 
ATOM     15  C   LIG d   1      -2.741  76.314 116.774  0.00  0.00     0.109 C 
ATOM     16  O   LIG d   1      -3.927  77.955 115.471  0.00  0.00    -0.276 OA
ATOM     17  H   LIG d   1      -4.752  76.700 118.251  0.00  0.00     0.149 HD
ENDBRANCH   6  13
BRANCH   5  18
ATOM     18  N   LIG d   1      -4.907  80.328 117.522  0.00  0.00     0.381 N 
ATOM     19  H   LIG d   1      -4.703  80.040 116.586  0.00  0.00    -0.090 HD
ATOM     20  H   LIG d   1      -4.067  80.245 118.068  0.00  0.00    -0.090 HD
ATOM     21  H   LIG d   1      -5.221  81.274 117.525  0.00  0.00    -0.090 HD
ENDBRANCH   5  18
BRANCH   3  22
ATOM     22  C   LIG d   1      -9.446  80.066 119.026  0.00  0.00     0.382 C 
ATOM     23  O   LIG d   1      -9.338  81.258 119.403  0.00  0.00    -0.241 OA
ATOM     24  O   LIG d   1     -10.514  79.456 119.220  0.00  0.00    -0.241 OA
ENDBRANCH   3  22
TORSDOF 7
ENDMDL
MODEL 3
REMARK VINA RESULT:      -5.4      2.655      5.466
REMARK  7 active torsions:
REMARK  status: ('A' for Active; 'I' for Inactive)
REMARK    1  A    between atoms: C_2  and  C_3 
REMARK    2  A    between atoms: C_3  and  O_6 
REMARK    3  A    between atoms: C_3  and  C_4 
REMARK    4  A    between atoms: C_7  and  O_6 
REMARK    5  A    between atoms: C_9  and  C_10 
REMARK    6  A    between atoms: N_15  and  C_14 
REMARK    7  A    between atoms: N_20  and  C_19 
REMARK       I    between atoms: C_22  and  N_20 
ROOT
ATOM      1  C   LIG d   1      -6.370  78.539 117.649  0.00  0.00     0.161 C 
ATOM      2  C   LIG d   1      -7.735  78.671 117.953  0.00  0.00     0.016 C 
ATOM      3  C   LIG d   1      -8.321  79.881 118.389  0.00  0.00     0.038 C 
ATOM      4  C   LIG d   1      -7.606  81.088 118.406  0.00  0.00     0.028 C 
ATOM      5  C   LIG d   1      -6.104  80.900 118.590  0.00  0.00    -0.047 C 
ATOM      6  C   LIG d   1      -5.596  79.871 117.554  0.00  0.00     0.091 C 
ENDROOT
BRANCH   1   7
ATOM      7  O   LIG d   1      -6.211  77.781 116.433  0.00  0.00    -0.368 OA
BRANCH   7   8
ATOM      8  C   LIG d   1      -5.620  76.466 116.575  0.00  0.00     0.119 C 
BRANCH   8   9
ATOM      9  C   LIG d   1      -4.513  76.338 115.511  0.00  0.00     0.028 C 
ATOM     10  C   LIG d   1      -4.711  75.114 114.602  0.00  0.00     0.006 C 
ENDBRANCH   8   9
BRANCH   8  11
ATOM     11  C   LIG d   1      -6.630  75.362 116.244  0.00  0.00     0.028 C 
ATOM     12  C   LIG d   1      -7.511  74.982 117.444  0.00  0.00     0.006 C 
ENDBRANCH   8  11
ENDBRANCH   7   8
ENDBRANCH   1   7
BRANCH   6  13
ATOM     13  N   LIG d   1      -4.152  79.565 117.720  0.00  0.00    -0.311 N 
ATOM     14  C   LIG d   1      -3.242  79.784 116.772  0.00  0.00     0.210 C 
ATOM     15  C   LIG d   1      -1.812  79.379 117.142  0.00  0.00     0.109 C 
ATOM     16  O   LIG d   1      -3.479  80.305 115.672  0.00  0.00    -0.276 OA
ATOM     17  H   LIG d   1      -3.867  79.169 118.594  0.00  0.00     0.149 HD
ENDBRANCH   6  13
BRANCH   5  18
ATOM     18  N   LIG d   1      -5.468  82.223 118.451  0.00  0.00     0.381 N 
ATOM     19  H   LIG d   1      -5.019  82.476 119.308  0.00  0.00    -0.090 HD
ATOM     20  H   LIG d   1      -6.179  82.906 118.255  0.00  0.00    -0.090 HD
ATOM     21  H   LIG d   1      -4.802  82.205 117.711  0.00  0.00    -0.090 HD
ENDBRANCH   5  18
BRANCH   3  22
ATOM     22  C   LIG d   1      -9.628  79.884 118.853  0.00  0.00     0.382 C 
ATOM     23  O   LIG d   1     -10.379  78.907 118.615  0.00  0.00    -0.241 OA
ATOM     24  O   LIG d   1     -10.078  80.869 119.468  0.00  0.00    -0.241 OA
ENDBRANCH   3  22
TORSDOF 7
ENDMDL
MODEL 4
REMARK VINA RESULT:      -5.2      2.500      5.861
REMARK  7 active torsions:
REMARK  status: ('A' for Active; 'I' for Inactive)
REMARK    1  A    between atoms: C_2  and  C_3 
REMARK    2  A    between atoms: C_3  and  O_6 
REMARK    3  A    between atoms: C_3  and  C_4 
REMARK    4  A    between atoms: C_7  and  O_6 
REMARK    5  A    between atoms: C_9  and  C_10 
REMARK    6  A    between atoms: N_15  and  C_14 
REMARK    7  A    between atoms: N_20  and  C_19 
REMARK       I    between atoms: C_22  and  N_20 
ROOT
ATOM      1  C   LIG d   1      -7.200  77.507 117.211  0.00  0.00     0.161 C 
ATOM      2  C   LIG d   1      -8.410  76.818 117.394  0.00  0.00     0.016 C 
ATOM      3  C   LIG d   1      -8.572  75.442 117.114  0.00  0.00     0.038 C 
ATOM      4  C   LIG d   1      -7.486  74.622 116.771  0.00  0.00     0.028 C 
ATOM      5  C   LIG d   1      -6.351  75.375 116.087  0.00  0.00    -0.047 C 
ATOM      6  C   LIG d   1      -5.976  76.606 116.944  0.00  0.00     0.091 C 
ENDROOT
BRANCH   1   7
ATOM      7  O   LIG d   1      -6.952  78.368 118.340  0.00  0.00    -0.368 OA
BRANCH   7   8
ATOM      8  C   LIG d   1      -7.041  79.792 118.088  0.00  0.00     0.119 C 
BRANCH   8   9
ATOM      9  C   LIG d   1      -5.977  80.484 118.962  0.00  0.00     0.028 C 
ATOM     10  C   LIG d   1      -4.911  81.210 118.123  0.00  0.00     0.006 C 
ENDBRANCH   8   9
BRANCH   8  11
ATOM     11  C   LIG d   1      -8.384  80.358 118.560  0.00  0.00     0.028 C 
ATOM     12  C   LIG d   1      -8.625  81.798 118.080  0.00  0.00     0.006 C 
ENDBRANCH   8  11
ENDBRANCH   7   8
ENDBRANCH   1   7
BRANCH   6  13
ATOM     13  N   LIG d   1      -4.930  77.445 116.304  0.00  0.00    -0.311 N 
ATOM     14  C   LIG d   1      -3.829  77.851 116.934  0.00  0.00     0.210 C 
ATOM     15  C   LIG d   1      -2.890  78.726 116.097  0.00  0.00     0.109 C 
ATOM     16  O   LIG d   1      -3.525  77.543 118.097  0.00  0.00    -0.276 OA
ATOM     17  H   LIG d   1      -5.081  77.715 115.352  0.00  0.00     0.149 HD
ENDBRANCH   6  13
BRANCH   5  18
ATOM     18  N   LIG d   1      -5.231  74.431 115.911  0.00  0.00     0.381 N 
ATOM     19  H   LIG d   1      -5.535  73.502 116.125  0.00  0.00    -0.090 HD
ATOM     20  H   LIG d   1      -4.495  74.677 116.549  0.00  0.00    -0.090 HD
ATOM     21  H   LIG d   1      -4.896  74.470 114.974  0.00  0.00    -0.090 HD
ENDBRANCH   5  18
BRANCH   3  22
ATOM     22  C   LIG d   1      -9.840  74.880 117.136  0.00  0.00     0.382 C 
ATOM     23  O   LIG d   1      -9.989  73.659 116.891  0.00  0.00    -0.241 OA
ATOM     24  O   LIG d   1     -10.841  75.589 117.353  0.00  0.00    -0.241 OA
ENDBRANCH   3  22
TORSDOF 7
ENDMDL
MODEL 5
REMARK VINA RESULT:      -5.1      4.953      7.754
REMARK  7 active torsions:
REMARK  status: ('A' for Active; 'I' for Inactive)
REMARK    1  A    between atoms: C_2  and  C_3 
REMARK    2  A    between atoms: C_3  and  O_6 
REMARK    3  A    between atoms: C_3  and  C_4 
REMARK    4  A    between atoms: C_7  and  O_6 
REMARK    5  A    between atoms: C_9  and  C_10 
REMARK    6  A    between atoms: N_15  and  C_14 
REMARK    7  A    between atoms: N_20  and  C_19 
REMARK       I    between atoms: C_22  and  N_20 
ROOT
ATOM      1  C   LIG d   1      -0.581  77.404 115.478  0.00  0.00     0.161 C 
ATOM      2  C   LIG d   1      -1.838  77.367 114.850  0.00  0.00     0.016 C 
ATOM      3  C   LIG d   1      -2.767  76.317 115.031  0.00  0.00     0.038 C 
ATOM      4  C   LIG d   1      -2.563  75.300 115.976  0.00  0.00     0.028 C 
ATOM      5  C   LIG d   1      -1.091  75.026 116.262  0.00  0.00    -0.047 C 
ATOM      6  C   LIG d   1      -0.387  76.360 116.598  0.00  0.00     0.091 C 
ENDROOT
BRANCH   1   7
ATOM      7  O   LIG d   1      -0.325  78.731 115.980  0.00  0.00    -0.368 OA
BRANCH   7   8
ATOM      8  C   LIG d   1      -1.223  79.770 115.521  0.00  0.00     0.119 C 
BRANCH   8   9
ATOM      9  C   LIG d   1      -0.369  80.845 114.821  0.00  0.00     0.028 C 
ATOM     10  C   LIG d   1      -0.574  80.857 113.297  0.00  0.00     0.006 C 
ENDBRANCH   8   9
BRANCH   8  11
ATOM     11  C   LIG d   1      -1.893  80.487 116.697  0.00  0.00     0.028 C 
ATOM     12  C   LIG d   1      -3.407  80.229 116.768  0.00  0.00     0.006 C 
ENDBRANCH   8  11
ENDBRANCH   7   8
ENDBRANCH   1   7
BRANCH   6  13
ATOM     13  N   LIG d   1       1.075  76.194 116.809  0.00  0.00    -0.311 N 
ATOM     14  C   LIG d   1       1.702  76.566 117.923  0.00  0.00     0.210 C 
ATOM     15  C   LIG d   1       3.214  76.323 117.926  0.00  0.00     0.109 C 
ATOM     16  O   LIG d   1       1.145  77.046 118.922  0.00  0.00    -0.276 OA
ATOM     17  H   LIG d   1       1.599  75.784 116.061  0.00  0.00     0.149 HD
ENDBRANCH   6  13
BRANCH   5  18
ATOM     18  N   LIG d   1      -1.025  74.045 117.361  0.00  0.00     0.381 N 
ATOM     19  H   LIG d   1      -0.344  73.343 117.150  0.00  0.00    -0.090 HD
ATOM     20  H   LIG d   1      -1.921  73.597 117.451  0.00  0.00    -0.090 HD
ATOM     21  H   LIG d   1      -0.788  74.503 118.214  0.00  0.00    -0.090 HD
ENDBRANCH   5  18
BRANCH   3  22
ATOM     22  C   LIG d   1      -3.898  76.255 114.231  0.00  0.00     0.382 C 
ATOM     23  O   LIG d   1      -4.233  75.169 113.702  0.00  0.00    -0.241 OA
ATOM     24  O   LIG d   1      -4.563  77.283 113.997  0.00  0.00    -0.241 OA
ENDBRANCH   3  22
TORSDOF 7
ENDMDL
MODEL 6
REMARK VINA RESULT:      -5.0     14.471     16.693
REMARK  7 active torsions:
REMARK  status: ('A' for Active; 'I' for Inactive)
REMARK    1  A    between atoms: C_2  and  C_3 
REMARK    2  A    between atoms: C_3  and  O_6 
REMARK    3  A    between atoms: C_3  and  C_4 
REMARK    4  A    between atoms: C_7  and  O_6 
REMARK    5  A    between atoms: C_9  and  C_10 
REMARK    6  A    between atoms: N_15  and  C_14 
REMARK    7  A    between atoms: N_20  and  C_19 
REMARK       I    between atoms: C_22  and  N_20 
ROOT
ATOM      1  C   LIG d   1       1.959  89.698 116.011  0.00  0.00     0.161 C 
ATOM      2  C   LIG d   1       1.529  88.568 115.294  0.00  0.00     0.016 C 
ATOM      3  C   LIG d   1       2.414  87.605 114.757  0.00  0.00     0.038 C 
ATOM      4  C   LIG d   1       3.789  87.626 115.033  0.00  0.00     0.028 C 
ATOM      5  C   LIG d   1       4.327  89.022 115.329  0.00  0.00    -0.047 C 
ATOM      6  C   LIG d   1       3.447  89.679 116.417  0.00  0.00     0.091 C 
ENDROOT
BRANCH   1   7
ATOM      7  O   LIG d   1       1.125  89.886 117.171  0.00  0.00    -0.368 OA
BRANCH   7   8
ATOM      8  C   LIG d   1      -0.129  90.578 116.950  0.00  0.00     0.119 C 
BRANCH   8   9
ATOM      9  C   LIG d   1       0.190  92.079 116.813  0.00  0.00     0.028 C 
ATOM     10  C   LIG d   1       0.870  92.652 118.067  0.00  0.00     0.006 C 
ENDBRANCH   8   9
BRANCH   8  11
ATOM     11  C   LIG d   1      -1.048  90.468 118.170  0.00  0.00     0.028 C 
ATOM     12  C   LIG d   1      -2.490  90.088 117.797  0.00  0.00     0.006 C 
ENDBRANCH   8  11
ENDBRANCH   7   8
ENDBRANCH   1   7
BRANCH   6  13
ATOM     13  N   LIG d   1       3.853  91.079 116.705  0.00  0.00    -0.311 N 
ATOM     14  C   LIG d   1       4.695  91.412 117.681  0.00  0.00     0.210 C 
ATOM     15  C   LIG d   1       4.964  92.914 117.820  0.00  0.00     0.109 C 
ATOM     16  O   LIG d   1       5.271  90.604 118.425  0.00  0.00    -0.276 OA
ATOM     17  H   LIG d   1       3.457  91.796 116.130  0.00  0.00     0.149 HD
ENDBRANCH   6  13
BRANCH   5  18
ATOM     18  N   LIG d   1       5.738  88.880 115.733  0.00  0.00     0.381 N 
ATOM     19  H   LIG d   1       5.920  89.454 116.532  0.00  0.00    -0.090 HD
ATOM     20  H   LIG d   1       6.325  89.192 114.980  0.00  0.00    -0.090 HD
ATOM     21  H   LIG d   1       5.937  87.928 115.947  0.00  0.00    -0.090 HD
ENDBRANCH   5  18
BRANCH   3  22
ATOM     22  C   LIG d   1       1.929  86.628 113.901  0.00  0.00     0.382 C 
ATOM     23  O   LIG d   1       2.491  85.507 113.846  0.00  0.00    -0.241 OA
ATOM     24  O   LIG d   1       0.964  86.868 113.151  0.00  0.00    -0.241 OA
ENDBRANCH   3  22
TORSDOF 7
ENDMDL
MODEL 7
REMARK VINA RESULT:      -4.7     16.371     18.812
REMARK  7 active torsions:
REMARK  status: ('A' for Active; 'I' for Inactive)
REMARK    1  A    between atoms: C_2  and  C_3 
REMARK    2  A    between atoms: C_3  and  O_6 
REMARK    3  A    between atoms: C_3  and  C_4 
REMARK    4  A    between atoms: C_7  and  O_6 
REMARK    5  A    between atoms: C_9  and  C_10 
REMARK    6  A    between atoms: N_15  and  C_14 
REMARK    7  A    between atoms: N_20  and  C_19 
REMARK       I    between atoms: C_22  and  N_20 
ROOT
ATOM      1  C   LIG d   1      11.268  75.868 115.062  0.00  0.00     0.161 C 
ATOM      2  C   LIG d   1       9.938  76.302 115.185  0.00  0.00     0.016 C 
ATOM      3  C   LIG d   1       9.555  77.662 115.124  0.00  0.00     0.038 C 
ATOM      4  C   LIG d   1      10.464  78.674 114.782  0.00  0.00     0.028 C 
ATOM      5  C   LIG d   1      11.907  78.341 115.147  0.00  0.00    -0.047 C 
ATOM      6  C   LIG d   1      12.259  76.947 114.578  0.00  0.00     0.091 C 
ENDROOT
BRANCH   1   7
ATOM      7  O   LIG d   1      11.328  74.712 114.203  0.00  0.00    -0.368 OA
BRANCH   7   8
ATOM      8  C   LIG d   1      11.655  73.456 114.846  0.00  0.00     0.119 C 
BRANCH   8   9
ATOM      9  C   LIG d   1      12.568  72.668 113.886  0.00  0.00     0.028 C 
ATOM     10  C   LIG d   1      14.060  72.874 114.195  0.00  0.00     0.006 C 
ENDBRANCH   8   9
BRANCH   8  11
ATOM     11  C   LIG d   1      10.410  72.583 115.029  0.00  0.00     0.028 C 
ATOM     12  C   LIG d   1      10.724  71.079 114.978  0.00  0.00     0.006 C 
ENDBRANCH   8  11
ENDBRANCH   7   8
ENDBRANCH   1   7
BRANCH   6  13
ATOM     13  N   LIG d   1      13.626  76.508 114.962  0.00  0.00    -0.311 N 
ATOM     14  C   LIG d   1      14.712  76.776 114.239  0.00  0.00     0.210 C 
ATOM     15  C   LIG d   1      16.020  76.212 114.804  0.00  0.00     0.109 C 
ATOM     16  O   LIG d   1      14.721  77.454 113.201  0.00  0.00    -0.276 OA
ATOM     17  H   LIG d   1      13.715  75.978 115.807  0.00  0.00     0.149 HD
ENDBRANCH   6  13
BRANCH   5  18
ATOM     18  N   LIG d   1      12.762  79.417 114.612  0.00  0.00     0.381 N 
ATOM     19  H   LIG d   1      13.294  79.073 113.838  0.00  0.00    -0.090 HD
ATOM     20  H   LIG d   1      13.402  79.711 115.329  0.00  0.00    -0.090 HD
ATOM     21  H   LIG d   1      12.200  80.187 114.323  0.00  0.00    -0.090 HD
ENDBRANCH   5  18
BRANCH   3  22
ATOM     22  C   LIG d   1       8.256  78.025 115.445  0.00  0.00     0.382 C 
ATOM     23  O   LIG d   1       7.303  77.651 114.720  0.00  0.00    -0.241 OA
ATOM     24  O   LIG d   1       8.029  78.757 116.427  0.00  0.00    -0.241 OA
ENDBRANCH   3  22
TORSDOF 7
ENDMDL
MODEL 8
REMARK VINA RESULT:      -4.7      2.883      5.496
REMARK  7 active torsions:
REMARK  status: ('A' for Active; 'I' for Inactive)
REMARK    1  A    between atoms: C_2  and  C_3 
REMARK    2  A    between atoms: C_3  and  O_6 
REMARK    3  A    between atoms: C_3  and  C_4 
REMARK    4  A    between atoms: C_7  and  O_6 
REMARK    5  A    between atoms: C_9  and  C_10 
REMARK    6  A    between atoms: N_15  and  C_14 
REMARK    7  A    between atoms: N_20  and  C_19 
REMARK       I    between atoms: C_22  and  N_20 
ROOT
ATOM      1  C   LIG d   1      -5.304  78.142 117.319  0.00  0.00     0.161 C 
ATOM      2  C   LIG d   1      -6.029  79.314 117.593  0.00  0.00     0.016 C 
ATOM      3  C   LIG d   1      -5.421  80.540 117.949  0.00  0.00     0.038 C 
ATOM      4  C   LIG d   1      -4.030  80.718 117.906  0.00  0.00     0.028 C 
ATOM      5  C   LIG d   1      -3.248  79.427 118.125  0.00  0.00    -0.047 C 
ATOM      6  C   LIG d   1      -3.783  78.346 117.159  0.00  0.00     0.091 C 
ENDROOT
BRANCH   1   7
ATOM      7  O   LIG d   1      -5.848  77.493 116.152  0.00  0.00    -0.368 OA
BRANCH   7   8
ATOM      8  C   LIG d   1      -6.363  76.154 116.351  0.00  0.00     0.119 C 
BRANCH   8   9
ATOM      9  C   LIG d   1      -5.698  75.242 115.302  0.00  0.00     0.028 C 
ATOM     10  C   LIG d   1      -4.986  76.040 114.197  0.00  0.00     0.006 C 
ENDBRANCH   8   9
BRANCH   8  11
ATOM     11  C   LIG d   1      -7.864  76.085 116.054  0.00  0.00     0.028 C 
ATOM     12  C   LIG d   1      -8.729  76.460 117.268  0.00  0.00     0.006 C 
ENDBRANCH   8  11
ENDBRANCH   7   8
ENDBRANCH   1   7
BRANCH   6  13
ATOM     13  N   LIG d   1      -3.129  77.027 117.365  0.00  0.00    -0.311 N 
ATOM     14  C   LIG d   1      -2.120  76.584 116.616  0.00  0.00     0.210 C 
ATOM     15  C   LIG d   1      -1.605  75.189 116.986  0.00  0.00     0.109 C 
ATOM     16  O   LIG d   1      -1.583  77.226 115.702  0.00  0.00    -0.276 OA
ATOM     17  H   LIG d   1      -3.482  76.454 118.106  0.00  0.00     0.149 HD
ENDBRANCH   6  13
BRANCH   5  18
ATOM     18  N   LIG d   1      -1.819  79.731 117.918  0.00  0.00     0.381 N 
ATOM     19  H   LIG d   1      -1.464  80.240 118.703  0.00  0.00    -0.090 HD
ATOM     20  H   LIG d   1      -1.724  80.307 117.100  0.00  0.00    -0.090 HD
ATOM     21  H   LIG d   1      -1.304  78.887 117.801  0.00  0.00    -0.090 HD
ENDBRANCH   5  18
BRANCH   3  22
ATOM     22  C   LIG d   1      -6.206  81.594 118.391  0.00  0.00     0.382 C 
ATOM     23  O   LIG d   1      -6.998  82.160 117.600  0.00  0.00    -0.241 OA
ATOM     24  O   LIG d   1      -6.101  82.014 119.559  0.00  0.00    -0.241 OA
ENDBRANCH   3  22
TORSDOF 7
ENDMDL
MODEL 9
REMARK VINA RESULT:      -4.7     13.045     15.420
REMARK  7 active torsions:
REMARK  status: ('A' for Active; 'I' for Inactive)
REMARK    1  A    between atoms: C_2  and  C_3 
REMARK    2  A    between atoms: C_3  and  O_6 
REMARK    3  A    between atoms: C_3  and  C_4 
REMARK    4  A    between atoms: C_7  and  O_6 
REMARK    5  A    between atoms: C_9  and  C_10 
REMARK    6  A    between atoms: N_15  and  C_14 
REMARK    7  A    between atoms: N_20  and  C_19 
REMARK       I    between atoms: C_22  and  N_20 
ROOT
ATOM      1  C   LIG d   1     -14.843  64.792 115.453  0.00  0.00     0.161 C 
ATOM      2  C   LIG d   1     -14.817  66.195 115.399  0.00  0.00     0.016 C 
ATOM      3  C   LIG d   1     -15.880  66.975 114.888  0.00  0.00     0.038 C 
ATOM      4  C   LIG d   1     -17.112  66.406 114.533  0.00  0.00     0.028 C 
ATOM      5  C   LIG d   1     -17.003  64.949 114.097  0.00  0.00    -0.047 C 
ATOM      6  C   LIG d   1     -16.223  64.160 115.173  0.00  0.00     0.091 C 
ENDROOT
BRANCH   1   7
ATOM      7  O   LIG d   1     -14.334  64.342 116.724  0.00  0.00    -0.368 OA
BRANCH   7   8
ATOM      8  C   LIG d   1     -15.320  64.122 117.763  0.00  0.00     0.119 C 
BRANCH   8   9
ATOM      9  C   LIG d   1     -15.049  65.146 118.882  0.00  0.00     0.028 C 
ATOM     10  C   LIG d   1     -13.573  65.573 118.942  0.00  0.00     0.006 C 
ENDBRANCH   8   9
BRANCH   8  11
ATOM     11  C   LIG d   1     -15.142  62.749 118.418  0.00  0.00     0.028 C 
ATOM     12  C   LIG d   1     -14.039  61.910 117.752  0.00  0.00     0.006 C 
ENDBRANCH   8  11
ENDBRANCH   7   8
ENDBRANCH   1   7
BRANCH   6  13
ATOM     13  N   LIG d   1     -15.998  62.743 114.785  0.00  0.00    -0.311 N 
ATOM     14  C   LIG d   1     -16.808  61.748 115.142  0.00  0.00     0.210 C 
ATOM     15  C   LIG d   1     -16.382  60.360 114.654  0.00  0.00     0.109 C 
ATOM     16  O   LIG d   1     -17.857  61.887 115.790  0.00  0.00    -0.276 OA
ATOM     17  H   LIG d   1     -15.187  62.544 114.233  0.00  0.00     0.149 HD
ENDBRANCH   6  13
BRANCH   5  18
ATOM     18  N   LIG d   1     -18.373  64.442 113.889  0.00  0.00     0.381 N 
ATOM     19  H   LIG d   1     -18.815  64.954 113.152  0.00  0.00    -0.090 HD
ATOM     20  H   LIG d   1     -18.903  64.582 114.731  0.00  0.00    -0.090 HD
ATOM     21  H   LIG d   1     -18.347  63.473 113.661  0.00  0.00    -0.090 HD
ENDBRANCH   5  18
BRANCH   3  22
ATOM     22  C   LIG d   1     -15.701  68.336 114.690  0.00  0.00     0.382 C 
ATOM     23  O   LIG d   1     -15.192  68.752 113.622  0.00  0.00    -0.241 OA
ATOM     24  O   LIG d   1     -16.002  69.149 115.585  0.00  0.00    -0.241 OA
ENDBRANCH   3  22
TORSDOF 7
ENDMDL
