MODEL 1
REMARK VINA RESULT:      -5.9      0.000      0.000
REMARK  7 active torsions:
REMARK  status: ('A' for Active; 'I' for Inactive)
REMARK    1  A    between atoms: C_2  and  C_3 
REMARK    2  A    between atoms: C_3  and  O_6 
REMARK    3  A    between atoms: C_3  and  C_4 
REMARK    4  A    between atoms: C_7  and  O_6 
REMARK    5  A    between atoms: C_9  and  C_10 
REMARK    6  A    between atoms: N_15  and  C_14 
REMARK    7  A    between atoms: N_20  and  C_19 
REMARK       I    between atoms: C_22  and  N_20 
ROOT
ATOM      1  C   LIG d   1      -7.373  74.500 117.669  0.00  0.00     0.161 C 
ATOM      2  C   LIG d   1      -8.543  75.233 117.932  0.00  0.00     0.016 C 
ATOM      3  C   LIG d   1      -8.599  76.645 117.903  0.00  0.00     0.038 C 
ATOM      4  C   LIG d   1      -7.519  77.422 117.460  0.00  0.00     0.028 C 
ATOM      5  C   LIG d   1      -6.165  76.752 117.670  0.00  0.00    -0.047 C 
ATOM      6  C   LIG d   1      -6.213  75.326 117.075  0.00  0.00     0.091 C 
ENDROOT
BRANCH   1   7
ATOM      7  O   LIG d   1      -7.679  73.380 116.816  0.00  0.00    -0.368 OA
BRANCH   7   8
ATOM      8  C   LIG d   1      -7.902  72.113 117.483  0.00  0.00     0.119 C 
BRANCH   8   9
ATOM      9  C   LIG d   1      -6.937  71.086 116.860  0.00  0.00     0.028 C 
ATOM     10  C   LIG d   1      -6.229  71.630 115.607  0.00  0.00     0.006 C 
ENDBRANCH   8   9
BRANCH   8  11
ATOM     11  C   LIG d   1      -9.307  71.573 117.199  0.00  0.00     0.028 C 
ATOM     12  C   LIG d   1      -9.376  70.039 117.244  0.00  0.00     0.006 C 
ENDBRANCH   8  11
ENDBRANCH   7   8
ENDBRANCH   1   7
BRANCH   6  13
ATOM     13  N   LIG d   1      -4.955  74.570 117.312  0.00  0.00    -0.311 N 
ATOM     14  C   LIG d   1      -3.983  74.463 116.408  0.00  0.00     0.210 C 
ATOM     15  C   LIG d   1      -2.781  73.622 116.849  0.00  0.00     0.109 C 
ATOM     16  O   LIG d   1      -3.988  75.011 115.296  0.00  0.00    -0.276 OA
ATOM     17  H   LIG d   1      -4.854  74.120 118.201  0.00  0.00     0.149 HD
ENDBRANCH   6  13
BRANCH   5  18
ATOM     18  N   LIG d   1      -5.142  77.607 117.039  0.00  0.00     0.381 N 
ATOM     19  H   LIG d   1      -4.768  77.149 116.232  0.00  0.00    -0.090 HD
ATOM     20  H   LIG d   1      -4.393  77.755 117.693  0.00  0.00    -0.090 HD
ATOM     21  H   LIG d   1      -5.542  78.482 116.778  0.00  0.00    -0.090 HD
ENDBRANCH   5  18
BRANCH   3  22
ATOM     22  C   LIG d   1      -9.735  77.297 118.360  0.00  0.00     0.382 C 
ATOM     23  O   LIG d   1     -10.848  76.721 118.317  0.00  0.00    -0.241 OA
ATOM     24  O   LIG d   1      -9.666  78.470 118.774  0.00  0.00    -0.241 OA
ENDBRANCH   3  22
TORSDOF 7
ENDMDL
MODEL 2
REMARK VINA RESULT:      -5.5      1.980      5.133
REMARK  7 active torsions:
REMARK  status: ('A' for Active; 'I' for Inactive)
REMARK    1  A    between atoms: C_2  and  C_3 
REMARK    2  A    between atoms: C_3  and  O_6 
REMARK    3  A    between atoms: C_3  and  C_4 
REMARK    4  A    between atoms: C_7  and  O_6 
REMARK    5  A    between atoms: C_9  and  C_10 
REMARK    6  A    between atoms: N_15  and  C_14 
REMARK    7  A    between atoms: N_20  and  C_19 
REMARK       I    between atoms: C_22  and  N_20 
ROOT
ATOM      1  C   LIG d   1      -5.681  74.116 117.295  0.00  0.00     0.161 C 
ATOM      2  C   LIG d   1      -4.429  73.602 116.919  0.00  0.00     0.016 C 
ATOM      3  C   LIG d   1      -3.203  74.232 117.232  0.00  0.00     0.038 C 
ATOM      4  C   LIG d   1      -3.138  75.348 118.079  0.00  0.00     0.028 C 
ATOM      5  C   LIG d   1      -4.407  76.193 118.066  0.00  0.00    -0.047 C 
ATOM      6  C   LIG d   1      -5.625  75.273 118.315  0.00  0.00     0.091 C 
ENDROOT
BRANCH   1   7
ATOM      7  O   LIG d   1      -6.518  73.052 117.790  0.00  0.00    -0.368 OA
BRANCH   7   8
ATOM      8  C   LIG d   1      -7.548  72.579 116.888  0.00  0.00     0.119 C 
BRANCH   8   9
ATOM      9  C   LIG d   1      -8.905  72.779 117.589  0.00  0.00     0.028 C 
ATOM     10  C   LIG d   1      -9.723  73.924 116.969  0.00  0.00     0.006 C 
ENDBRANCH   8   9
BRANCH   8  11
ATOM     11  C   LIG d   1      -7.432  71.070 116.653  0.00  0.00     0.028 C 
ATOM     12  C   LIG d   1      -8.685  70.299 117.097  0.00  0.00     0.006 C 
ENDBRANCH   8  11
ENDBRANCH   7   8
ENDBRANCH   1   7
BRANCH   6  13
ATOM     13  N   LIG d   1      -6.915  76.007 118.234  0.00  0.00    -0.311 N 
ATOM     14  C   LIG d   1      -7.726  76.180 119.277  0.00  0.00     0.210 C 
ATOM     15  C   LIG d   1      -9.016  76.948 118.972  0.00  0.00     0.109 C 
ATOM     16  O   LIG d   1      -7.485  75.798 120.432  0.00  0.00    -0.276 OA
ATOM     17  H   LIG d   1      -7.174  76.377 117.341  0.00  0.00     0.149 HD
ENDBRANCH   6  13
BRANCH   5  18
ATOM     18  N   LIG d   1      -4.256  77.241 119.093  0.00  0.00     0.381 N 
ATOM     19  H   LIG d   1      -4.966  77.137 119.791  0.00  0.00    -0.090 HD
ATOM     20  H   LIG d   1      -4.369  78.140 118.659  0.00  0.00    -0.090 HD
ATOM     21  H   LIG d   1      -3.355  77.178 119.514  0.00  0.00    -0.090 HD
ENDBRANCH   5  18
BRANCH   3  22
ATOM     22  C   LIG d   1      -2.027  73.768 116.663  0.00  0.00     0.382 C 
ATOM     23  O   LIG d   1      -1.379  72.851 117.222  0.00  0.00    -0.241 OA
ATOM     24  O   LIG d   1      -1.583  74.285 115.620  0.00  0.00    -0.241 OA
ENDBRANCH   3  22
TORSDOF 7
ENDMDL
MODEL 3
REMARK VINA RESULT:      -5.3      1.827      4.819
REMARK  7 active torsions:
REMARK  status: ('A' for Active; 'I' for Inactive)
REMARK    1  A    between atoms: C_2  and  C_3 
REMARK    2  A    between atoms: C_3  and  O_6 
REMARK    3  A    between atoms: C_3  and  C_4 
REMARK    4  A    between atoms: C_7  and  O_6 
REMARK    5  A    between atoms: C_9  and  C_10 
REMARK    6  A    between atoms: N_15  and  C_14 
REMARK    7  A    between atoms: N_20  and  C_19 
REMARK       I    between atoms: C_22  and  N_20 
ROOT
ATOM      1  C   LIG d   1      -7.052  75.305 116.925  0.00  0.00     0.161 C 
ATOM      2  C   LIG d   1      -5.773  75.236 116.348  0.00  0.00     0.016 C 
ATOM      3  C   LIG d   1      -4.825  76.281 116.430  0.00  0.00     0.038 C 
ATOM      4  C   LIG d   1      -5.038  77.414 117.230  0.00  0.00     0.028 C 
ATOM      5  C   LIG d   1      -6.512  77.753 117.420  0.00  0.00    -0.047 C 
ATOM      6  C   LIG d   1      -7.261  76.487 117.895  0.00  0.00     0.091 C 
ENDROOT
BRANCH   1   7
ATOM      7  O   LIG d   1      -7.360  74.059 117.580  0.00  0.00    -0.368 OA
BRANCH   7   8
ATOM      8  C   LIG d   1      -7.864  72.999 116.730  0.00  0.00     0.119 C 
BRANCH   8   9
ATOM      9  C   LIG d   1      -9.237  72.573 117.285  0.00  0.00     0.028 C 
ATOM     10  C   LIG d   1      -9.404  71.045 117.329  0.00  0.00     0.006 C 
ENDBRANCH   8   9
BRANCH   8  11
ATOM     11  C   LIG d   1      -6.985  71.748 116.819  0.00  0.00     0.028 C 
ATOM     12  C   LIG d   1      -6.074  71.571 115.594  0.00  0.00     0.006 C 
ENDBRANCH   8  11
ENDBRANCH   7   8
ENDBRANCH   1   7
BRANCH   6  13
ATOM     13  N   LIG d   1      -8.725  76.709 118.024  0.00  0.00    -0.311 N 
ATOM     14  C   LIG d   1      -9.322  77.006 119.177  0.00  0.00     0.210 C 
ATOM     15  C   LIG d   1     -10.842  77.175 119.093  0.00  0.00     0.109 C 
ATOM     16  O   LIG d   1      -8.733  77.178 120.255  0.00  0.00    -0.276 OA
ATOM     17  H   LIG d   1      -9.275  76.620 117.192  0.00  0.00     0.149 HD
ENDBRANCH   6  13
BRANCH   5  18
ATOM     18  N   LIG d   1      -6.593  78.868 118.382  0.00  0.00     0.381 N 
ATOM     19  H   LIG d   1      -6.789  78.512 119.296  0.00  0.00    -0.090 HD
ATOM     20  H   LIG d   1      -7.346  79.476 118.112  0.00  0.00    -0.090 HD
ATOM     21  H   LIG d   1      -5.734  79.373 118.392  0.00  0.00    -0.090 HD
ENDBRANCH   5  18
BRANCH   3  22
ATOM     22  C   LIG d   1      -3.664  76.217 115.675  0.00  0.00     0.382 C 
ATOM     23  O   LIG d   1      -2.557  76.488 116.201  0.00  0.00    -0.241 OA
ATOM     24  O   LIG d   1      -3.713  75.934 114.463  0.00  0.00    -0.241 OA
ENDBRANCH   3  22
TORSDOF 7
ENDMDL
MODEL 4
REMARK VINA RESULT:      -5.3      1.416      2.294
REMARK  7 active torsions:
REMARK  status: ('A' for Active; 'I' for Inactive)
REMARK    1  A    between atoms: C_2  and  C_3 
REMARK    2  A    between atoms: C_3  and  O_6 
REMARK    3  A    between atoms: C_3  and  C_4 
REMARK    4  A    between atoms: C_7  and  O_6 
REMARK    5  A    between atoms: C_9  and  C_10 
REMARK    6  A    between atoms: N_15  and  C_14 
REMARK    7  A    between atoms: N_20  and  C_19 
REMARK       I    between atoms: C_22  and  N_20 
ROOT
ATOM      1  C   LIG d   1      -6.632  74.226 118.388  0.00  0.00     0.161 C 
ATOM      2  C   LIG d   1      -7.992  74.447 118.116  0.00  0.00     0.016 C 
ATOM      3  C   LIG d   1      -8.496  75.669 117.615  0.00  0.00     0.038 C 
ATOM      4  C   LIG d   1      -7.649  76.710 117.207  0.00  0.00     0.028 C 
ATOM      5  C   LIG d   1      -6.308  76.720 117.934  0.00  0.00    -0.047 C 
ATOM      6  C   LIG d   1      -5.678  75.311 117.845  0.00  0.00     0.091 C 
ENDROOT
BRANCH   1   7
ATOM      7  O   LIG d   1      -6.241  72.927 117.902  0.00  0.00    -0.368 OA
BRANCH   7   8
ATOM      8  C   LIG d   1      -6.884  72.483 116.682  0.00  0.00     0.119 C 
BRANCH   8   9
ATOM      9  C   LIG d   1      -7.548  71.124 116.976  0.00  0.00     0.028 C 
ATOM     10  C   LIG d   1      -9.077  71.170 116.810  0.00  0.00     0.006 C 
ENDBRANCH   8   9
BRANCH   8  11
ATOM     11  C   LIG d   1      -5.857  72.202 115.581  0.00  0.00     0.028 C 
ATOM     12  C   LIG d   1      -5.327  73.484 114.919  0.00  0.00     0.006 C 
ENDBRANCH   8  11
ENDBRANCH   7   8
ENDBRANCH   1   7
BRANCH   6  13
ATOM     13  N   LIG d   1      -4.404  75.211 118.603  0.00  0.00    -0.311 N 
ATOM     14  C   LIG d   1      -3.204  75.352 118.042  0.00  0.00     0.210 C 
ATOM     15  C   LIG d   1      -2.020  75.191 119.000  0.00  0.00     0.109 C 
ATOM     16  O   LIG d   1      -3.009  75.626 116.848  0.00  0.00    -0.276 OA
ATOM     17  H   LIG d   1      -4.471  75.021 119.584  0.00  0.00     0.149 HD
ENDBRANCH   6  13
BRANCH   5  18
ATOM     18  N   LIG d   1      -5.473  77.767 117.316  0.00  0.00     0.381 N 
ATOM     19  H   LIG d   1      -5.661  78.649 117.749  0.00  0.00    -0.090 HD
ATOM     20  H   LIG d   1      -5.709  77.838 116.342  0.00  0.00    -0.090 HD
ATOM     21  H   LIG d   1      -4.509  77.537 117.416  0.00  0.00    -0.090 HD
ENDBRANCH   5  18
BRANCH   3  22
ATOM     22  C   LIG d   1      -9.866  75.874 117.555  0.00  0.00     0.382 C 
ATOM     23  O   LIG d   1     -10.404  76.736 118.292  0.00  0.00    -0.241 OA
ATOM     24  O   LIG d   1     -10.577  75.178 116.806  0.00  0.00    -0.241 OA
ENDBRANCH   3  22
TORSDOF 7
ENDMDL
MODEL 5
REMARK VINA RESULT:      -5.2      2.266      4.860
REMARK  7 active torsions:
REMARK  status: ('A' for Active; 'I' for Inactive)
REMARK    1  A    between atoms: C_2  and  C_3 
REMARK    2  A    between atoms: C_3  and  O_6 
REMARK    3  A    between atoms: C_3  and  C_4 
REMARK    4  A    between atoms: C_7  and  O_6 
REMARK    5  A    between atoms: C_9  and  C_10 
REMARK    6  A    between atoms: N_15  and  C_14 
REMARK    7  A    between atoms: N_20  and  C_19 
REMARK       I    between atoms: C_22  and  N_20 
ROOT
ATOM      1  C   LIG d   1      -6.641  74.485 117.951  0.00  0.00     0.161 C 
ATOM      2  C   LIG d   1      -7.009  73.165 117.639  0.00  0.00     0.016 C 
ATOM      3  C   LIG d   1      -8.323  72.789 117.278  0.00  0.00     0.038 C 
ATOM      4  C   LIG d   1      -9.332  73.738 117.056  0.00  0.00     0.028 C 
ATOM      5  C   LIG d   1      -9.136  75.026 117.849  0.00  0.00    -0.047 C 
ATOM      6  C   LIG d   1      -7.703  75.551 117.607  0.00  0.00     0.091 C 
ENDROOT
BRANCH   1   7
ATOM      7  O   LIG d   1      -5.386  74.805 117.319  0.00  0.00    -0.368 OA
BRANCH   7   8
ATOM      8  C   LIG d   1      -4.828  73.783 116.456  0.00  0.00     0.119 C 
BRANCH   8   9
ATOM      9  C   LIG d   1      -3.294  73.895 116.539  0.00  0.00     0.028 C 
ATOM     10  C   LIG d   1      -2.831  74.765 117.720  0.00  0.00     0.006 C 
ENDBRANCH   8   9
BRANCH   8  11
ATOM     11  C   LIG d   1      -5.175  74.044 114.987  0.00  0.00     0.028 C 
ATOM     12  C   LIG d   1      -5.242  75.541 114.648  0.00  0.00     0.006 C 
ENDBRANCH   8  11
ENDBRANCH   7   8
ENDBRANCH   1   7
BRANCH   6  13
ATOM     13  N   LIG d   1      -7.400  76.763 118.412  0.00  0.00    -0.311 N 
ATOM     14  C   LIG d   1      -6.796  77.841 117.915  0.00  0.00     0.210 C 
ATOM     15  C   LIG d   1      -6.561  78.972 118.920  0.00  0.00     0.109 C 
ATOM     16  O   LIG d   1      -6.462  77.980 116.728  0.00  0.00    -0.276 OA
ATOM     17  H   LIG d   1      -7.665  76.748 119.377  0.00  0.00     0.149 HD
ENDBRANCH   6  13
BRANCH   5  18
ATOM     18  N   LIG d   1     -10.180  75.976 117.419  0.00  0.00     0.381 N 
ATOM     19  H   LIG d   1     -10.783  76.187 118.189  0.00  0.00    -0.090 HD
ATOM     20  H   LIG d   1     -10.730  75.549 116.695  0.00  0.00    -0.090 HD
ATOM     21  H   LIG d   1      -9.760  76.812 117.078  0.00  0.00    -0.090 HD
ENDBRANCH   5  18
BRANCH   3  22
ATOM     22  C   LIG d   1      -8.648  71.445 117.174  0.00  0.00     0.382 C 
ATOM     23  O   LIG d   1      -7.900  70.666 116.534  0.00  0.00    -0.241 OA
ATOM     24  O   LIG d   1      -9.703  71.009 117.673  0.00  0.00    -0.241 OA
ENDBRANCH   3  22
TORSDOF 7
ENDMDL
MODEL 6
REMARK VINA RESULT:      -5.0      1.954      5.175
REMARK  7 active torsions:
REMARK  status: ('A' for Active; 'I' for Inactive)
REMARK    1  A    between atoms: C_2  and  C_3 
REMARK    2  A    between atoms: C_3  and  O_6 
REMARK    3  A    between atoms: C_3  and  C_4 
REMARK    4  A    between atoms: C_7  and  O_6 
REMARK    5  A    between atoms: C_9  and  C_10 
REMARK    6  A    between atoms: N_15  and  C_14 
REMARK    7  A    between atoms: N_20  and  C_19 
REMARK       I    between atoms: C_22  and  N_20 
ROOT
ATOM      1  C   LIG d   1      -7.677  75.367 117.293  0.00  0.00     0.161 C 
ATOM      2  C   LIG d   1      -8.263  74.094 117.190  0.00  0.00     0.016 C 
ATOM      3  C   LIG d   1      -7.538  72.930 116.845  0.00  0.00     0.038 C 
ATOM      4  C   LIG d   1      -6.140  72.934 116.727  0.00  0.00     0.028 C 
ATOM      5  C   LIG d   1      -5.571  74.291 116.327  0.00  0.00    -0.047 C 
ATOM      6  C   LIG d   1      -6.135  75.372 117.277  0.00  0.00     0.091 C 
ENDROOT
BRANCH   1   7
ATOM      7  O   LIG d   1      -8.169  76.036 118.472  0.00  0.00    -0.368 OA
BRANCH   7   8
ATOM      8  C   LIG d   1      -9.135  77.092 118.249  0.00  0.00     0.119 C 
BRANCH   8   9
ATOM      9  C   LIG d   1      -8.876  78.186 119.302  0.00  0.00     0.028 C 
ATOM     10  C   LIG d   1      -8.234  79.445 118.696  0.00  0.00     0.006 C 
ENDBRANCH   8   9
BRANCH   8  11
ATOM     11  C   LIG d   1     -10.563  76.605 118.512  0.00  0.00     0.028 C 
ATOM     12  C   LIG d   1     -11.285  77.430 119.589  0.00  0.00     0.006 C 
ENDBRANCH   8  11
ENDBRANCH   7   8
ENDBRANCH   1   7
BRANCH   6  13
ATOM     13  N   LIG d   1      -5.694  76.741 116.903  0.00  0.00    -0.311 N 
ATOM     14  C   LIG d   1      -5.155  77.600 117.768  0.00  0.00     0.210 C 
ATOM     15  C   LIG d   1      -4.789  78.966 117.179  0.00  0.00     0.109 C 
ATOM     16  O   LIG d   1      -4.917  77.349 118.958  0.00  0.00    -0.276 OA
ATOM     17  H   LIG d   1      -5.822  77.017 115.949  0.00  0.00     0.149 HD
ENDBRANCH   6  13
BRANCH   5  18
ATOM     18  N   LIG d   1      -4.100  74.189 116.375  0.00  0.00     0.381 N 
ATOM     19  H   LIG d   1      -3.735  74.117 115.447  0.00  0.00    -0.090 HD
ATOM     20  H   LIG d   1      -3.848  73.357 116.879  0.00  0.00    -0.090 HD
ATOM     21  H   LIG d   1      -3.717  74.989 116.829  0.00  0.00    -0.090 HD
ENDBRANCH   5  18
BRANCH   3  22
ATOM     22  C   LIG d   1      -8.218  71.752 116.575  0.00  0.00     0.382 C 
ATOM     23  O   LIG d   1      -7.582  70.680 116.431  0.00  0.00    -0.241 OA
ATOM     24  O   LIG d   1      -9.455  71.755 116.431  0.00  0.00    -0.241 OA
ENDBRANCH   3  22
TORSDOF 7
ENDMDL
MODEL 7
REMARK VINA RESULT:      -4.8     17.056     19.335
REMARK  7 active torsions:
REMARK  status: ('A' for Active; 'I' for Inactive)
REMARK    1  A    between atoms: C_2  and  C_3 
REMARK    2  A    between atoms: C_3  and  O_6 
REMARK    3  A    between atoms: C_3  and  C_4 
REMARK    4  A    between atoms: C_7  and  O_6 
REMARK    5  A    between atoms: C_9  and  C_10 
REMARK    6  A    between atoms: N_15  and  C_14 
REMARK    7  A    between atoms: N_20  and  C_19 
REMARK       I    between atoms: C_22  and  N_20 
ROOT
ATOM      1  C   LIG d   1       2.172  90.562 117.203  0.00  0.00     0.161 C 
ATOM      2  C   LIG d   1       2.144  89.906 115.961  0.00  0.00     0.016 C 
ATOM      3  C   LIG d   1       3.302  89.418 115.313  0.00  0.00     0.038 C 
ATOM      4  C   LIG d   1       4.558  89.420 115.938  0.00  0.00     0.028 C 
ATOM      5  C   LIG d   1       4.717  90.526 116.975  0.00  0.00    -0.047 C 
ATOM      6  C   LIG d   1       3.519  90.475 117.951  0.00  0.00     0.091 C 
ENDROOT
BRANCH   1   7
ATOM      7  O   LIG d   1       1.103  90.075 118.038  0.00  0.00    -0.368 OA
BRANCH   7   8
ATOM      8  C   LIG d   1      -0.180  90.728 117.877  0.00  0.00     0.119 C 
BRANCH   8   9
ATOM      9  C   LIG d   1       0.083  92.242 117.759  0.00  0.00     0.028 C 
ATOM     10  C   LIG d   1      -0.015  92.961 119.115  0.00  0.00     0.006 C 
ENDBRANCH   8   9
BRANCH   8  11
ATOM     11  C   LIG d   1      -1.050  90.563 119.126  0.00  0.00     0.028 C 
ATOM     12  C   LIG d   1      -2.487  90.128 118.798  0.00  0.00     0.006 C 
ENDBRANCH   8  11
ENDBRANCH   7   8
ENDBRANCH   1   7
BRANCH   6  13
ATOM     13  N   LIG d   1       3.553  91.577 118.948  0.00  0.00    -0.311 N 
ATOM     14  C   LIG d   1       3.677  92.861 118.617  0.00  0.00     0.210 C 
ATOM     15  C   LIG d   1       3.710  93.833 119.801  0.00  0.00     0.109 C 
ATOM     16  O   LIG d   1       3.731  93.290 117.455  0.00  0.00    -0.276 OA
ATOM     17  H   LIG d   1       3.483  91.320 119.913  0.00  0.00     0.149 HD
ENDBRANCH   6  13
BRANCH   5  18
ATOM     18  N   LIG d   1       6.016  90.326 117.644  0.00  0.00     0.381 N 
ATOM     19  H   LIG d   1       6.751  90.331 116.965  0.00  0.00    -0.090 HD
ATOM     20  H   LIG d   1       6.013  89.431 118.099  0.00  0.00    -0.090 HD
ATOM     21  H   LIG d   1       6.169  91.047 118.314  0.00  0.00    -0.090 HD
ENDBRANCH   5  18
BRANCH   3  22
ATOM     22  C   LIG d   1       3.216  88.957 114.008  0.00  0.00     0.382 C 
ATOM     23  O   LIG d   1       3.629  89.670 113.063  0.00  0.00    -0.241 OA
ATOM     24  O   LIG d   1       2.690  87.855 113.761  0.00  0.00    -0.241 OA
ENDBRANCH   3  22
TORSDOF 7
ENDMDL
MODEL 8
REMARK VINA RESULT:      -4.8      3.681      6.682
REMARK  7 active torsions:
REMARK  status: ('A' for Active; 'I' for Inactive)
REMARK    1  A    between atoms: C_2  and  C_3 
REMARK    2  A    between atoms: C_3  and  O_6 
REMARK    3  A    between atoms: C_3  and  C_4 
REMARK    4  A    between atoms: C_7  and  O_6 
REMARK    5  A    between atoms: C_9  and  C_10 
REMARK    6  A    between atoms: N_15  and  C_14 
REMARK    7  A    between atoms: N_20  and  C_19 
REMARK       I    between atoms: C_22  and  N_20 
ROOT
ATOM      1  C   LIG d   1      -2.387  74.320 116.308  0.00  0.00     0.161 C 
ATOM      2  C   LIG d   1      -1.763  73.418 117.185  0.00  0.00     0.016 C 
ATOM      3  C   LIG d   1      -0.512  73.666 117.796  0.00  0.00     0.038 C 
ATOM      4  C   LIG d   1       0.132  74.908 117.689  0.00  0.00     0.028 C 
ATOM      5  C   LIG d   1      -0.215  75.662 116.410  0.00  0.00    -0.047 C 
ATOM      6  C   LIG d   1      -1.753  75.726 116.267  0.00  0.00     0.091 C 
ENDROOT
BRANCH   1   7
ATOM      7  O   LIG d   1      -3.791  74.413 116.621  0.00  0.00    -0.368 OA
BRANCH   7   8
ATOM      8  C   LIG d   1      -4.698  73.807 115.668  0.00  0.00     0.119 C 
BRANCH   8   9
ATOM      9  C   LIG d   1      -5.303  74.941 114.818  0.00  0.00     0.028 C 
ATOM     10  C   LIG d   1      -5.797  76.118 115.676  0.00  0.00     0.006 C 
ENDBRANCH   8   9
BRANCH   8  11
ATOM     11  C   LIG d   1      -5.889  73.149 116.372  0.00  0.00     0.028 C 
ATOM     12  C   LIG d   1      -6.204  71.747 115.826  0.00  0.00     0.006 C 
ENDBRANCH   8  11
ENDBRANCH   7   8
ENDBRANCH   1   7
BRANCH   6  13
ATOM     13  N   LIG d   1      -2.178  76.374 114.999  0.00  0.00    -0.311 N 
ATOM     14  C   LIG d   1      -2.474  77.669 114.900  0.00  0.00     0.210 C 
ATOM     15  C   LIG d   1      -2.909  78.129 113.505  0.00  0.00     0.109 C 
ATOM     16  O   LIG d   1      -2.386  78.487 115.828  0.00  0.00    -0.276 OA
ATOM     17  H   LIG d   1      -2.246  75.790 114.188  0.00  0.00     0.149 HD
ENDBRANCH   6  13
BRANCH   5  18
ATOM     18  N   LIG d   1       0.414  76.994 116.493  0.00  0.00     0.381 N 
ATOM     19  H   LIG d   1      -0.258  77.700 116.268  0.00  0.00    -0.090 HD
ATOM     20  H   LIG d   1       1.160  77.043 115.823  0.00  0.00    -0.090 HD
ATOM     21  H   LIG d   1       0.771  77.146 117.411  0.00  0.00    -0.090 HD
ENDBRANCH   5  18
BRANCH   3  22
ATOM     22  C   LIG d   1       0.126  72.651 118.492  0.00  0.00     0.382 C 
ATOM     23  O   LIG d   1      -0.419  71.526 118.600  0.00  0.00    -0.241 OA
ATOM     24  O   LIG d   1       1.220  72.859 119.051  0.00  0.00    -0.241 OA
ENDBRANCH   3  22
TORSDOF 7
ENDMDL
MODEL 9
REMARK VINA RESULT:      -4.6      2.820      5.647
REMARK  7 active torsions:
REMARK  status: ('A' for Active; 'I' for Inactive)
REMARK    1  A    between atoms: C_2  and  C_3 
REMARK    2  A    between atoms: C_3  and  O_6 
REMARK    3  A    between atoms: C_3  and  C_4 
REMARK    4  A    between atoms: C_7  and  O_6 
REMARK    5  A    between atoms: C_9  and  C_10 
REMARK    6  A    between atoms: N_15  and  C_14 
REMARK    7  A    between atoms: N_20  and  C_19 
REMARK       I    between atoms: C_22  and  N_20 
ROOT
ATOM      1  C   LIG d   1      -3.907  74.203 116.753  0.00  0.00     0.161 C 
ATOM      2  C   LIG d   1      -4.688  73.036 116.713  0.00  0.00     0.016 C 
ATOM      3  C   LIG d   1      -6.099  73.041 116.809  0.00  0.00     0.038 C 
ATOM      4  C   LIG d   1      -6.839  74.232 116.799  0.00  0.00     0.028 C 
ATOM      5  C   LIG d   1      -6.068  75.428 117.349  0.00  0.00    -0.047 C 
ATOM      6  C   LIG d   1      -4.703  75.519 116.630  0.00  0.00     0.091 C 
ENDROOT
BRANCH   1   7
ATOM      7  O   LIG d   1      -2.883  74.140 115.740  0.00  0.00    -0.368 OA
BRANCH   7   8
ATOM      8  C   LIG d   1      -1.529  73.940 116.214  0.00  0.00     0.119 C 
BRANCH   8   9
ATOM      9  C   LIG d   1      -1.583  73.861 117.752  0.00  0.00     0.028 C 
ATOM     10  C   LIG d   1      -0.470  72.975 118.334  0.00  0.00     0.006 C 
ENDBRANCH   8   9
BRANCH   8  11
ATOM     11  C   LIG d   1      -0.645  75.151 115.901  0.00  0.00     0.028 C 
ATOM     12  C   LIG d   1       0.181  74.970 114.618  0.00  0.00     0.006 C 
ENDBRANCH   8  11
ENDBRANCH   7   8
ENDBRANCH   1   7
BRANCH   6  13
ATOM     13  N   LIG d   1      -3.851  76.611 117.167  0.00  0.00    -0.311 N 
ATOM     14  C   LIG d   1      -3.800  77.831 116.634  0.00  0.00     0.210 C 
ATOM     15  C   LIG d   1      -2.842  78.802 117.330  0.00  0.00     0.109 C 
ATOM     16  O   LIG d   1      -4.483  78.211 115.670  0.00  0.00    -0.276 OA
ATOM     17  H   LIG d   1      -3.287  76.399 117.967  0.00  0.00     0.149 HD
ENDBRANCH   6  13
BRANCH   5  18
ATOM     18  N   LIG d   1      -6.906  76.626 117.152  0.00  0.00     0.381 N 
ATOM     19  H   LIG d   1      -7.824  76.354 116.864  0.00  0.00    -0.090 HD
ATOM     20  H   LIG d   1      -6.501  77.190 116.425  0.00  0.00    -0.090 HD
ATOM     21  H   LIG d   1      -6.957  77.149 117.999  0.00  0.00    -0.090 HD
ENDBRANCH   5  18
BRANCH   3  22
ATOM     22  C   LIG d   1      -6.781  71.843 116.956  0.00  0.00     0.382 C 
ATOM     23  O   LIG d   1      -7.226  71.246 115.946  0.00  0.00    -0.241 OA
ATOM     24  O   LIG d   1      -6.997  71.374 118.090  0.00  0.00    -0.241 OA
ENDBRANCH   3  22
TORSDOF 7
ENDMDL
