MODEL 1
REMARK VINA RESULT:      -6.2      0.000      0.000
REMARK  7 active torsions:
REMARK  status: ('A' for Active; 'I' for Inactive)
REMARK    1  A    between atoms: C_2  and  C_3 
REMARK    2  A    between atoms: C_3  and  O_6 
REMARK    3  A    between atoms: C_3  and  C_4 
REMARK    4  A    between atoms: C_7  and  O_6 
REMARK    5  A    between atoms: C_9  and  C_10 
REMARK    6  A    between atoms: N_15  and  C_14 
REMARK    7  A    between atoms: N_20  and  C_19 
REMARK       I    between atoms: C_22  and  N_20 
ROOT
ATOM      1  C   LIG d   1      -7.662  75.313 116.785  0.00  0.00     0.161 C 
ATOM      2  C   LIG d   1      -6.617  75.062 115.881  0.00  0.00     0.016 C 
ATOM      3  C   LIG d   1      -5.626  76.016 115.554  0.00  0.00     0.038 C 
ATOM      4  C   LIG d   1      -5.526  77.242 116.227  0.00  0.00     0.028 C 
ATOM      5  C   LIG d   1      -6.856  77.737 116.784  0.00  0.00    -0.047 C 
ATOM      6  C   LIG d   1      -7.506  76.606 117.613  0.00  0.00     0.091 C 
ENDROOT
BRANCH   1   7
ATOM      7  O   LIG d   1      -7.838  74.178 117.657  0.00  0.00    -0.368 OA
BRANCH   7   8
ATOM      8  C   LIG d   1      -9.180  73.640 117.740  0.00  0.00     0.119 C 
BRANCH   8   9
ATOM      9  C   LIG d   1      -9.331  72.986 119.127  0.00  0.00     0.028 C 
ATOM     10  C   LIG d   1      -9.543  74.022 120.245  0.00  0.00     0.006 C 
ENDBRANCH   8   9
BRANCH   8  11
ATOM     11  C   LIG d   1      -9.390  72.506 116.732  0.00  0.00     0.028 C 
ATOM     12  C   LIG d   1      -9.613  71.143 117.407  0.00  0.00     0.006 C 
ENDBRANCH   8  11
ENDBRANCH   7   8
ENDBRANCH   1   7
BRANCH   6  13
ATOM     13  N   LIG d   1      -8.851  76.978 118.124  0.00  0.00    -0.311 N 
ATOM     14  C   LIG d   1      -9.057  77.499 119.332  0.00  0.00     0.210 C 
ATOM     15  C   LIG d   1     -10.522  77.792 119.669  0.00  0.00     0.109 C 
ATOM     16  O   LIG d   1      -8.162  77.777 120.145  0.00  0.00    -0.276 OA
ATOM     17  H   LIG d   1      -9.631  76.815 117.518  0.00  0.00     0.149 HD
ENDBRANCH   6  13
BRANCH   5  18
ATOM     18  N   LIG d   1      -6.583  78.951 117.577  0.00  0.00     0.381 N 
ATOM     19  H   LIG d   1      -6.315  78.695 118.506  0.00  0.00    -0.090 HD
ATOM     20  H   LIG d   1      -7.424  79.499 117.632  0.00  0.00    -0.090 HD
ATOM     21  H   LIG d   1      -5.858  79.483 117.148  0.00  0.00    -0.090 HD
ENDBRANCH   5  18
BRANCH   3  22
ATOM     22  C   LIG d   1      -4.745  75.762 114.514  0.00  0.00     0.382 C 
ATOM     23  O   LIG d   1      -3.568  75.403 114.762  0.00  0.00    -0.241 OA
ATOM     24  O   LIG d   1      -5.098  75.929 113.331  0.00  0.00    -0.241 OA
ENDBRANCH   3  22
TORSDOF 7
ENDMDL
MODEL 2
REMARK VINA RESULT:      -6.0     14.851     17.067
REMARK  7 active torsions:
REMARK  status: ('A' for Active; 'I' for Inactive)
REMARK    1  A    between atoms: C_2  and  C_3 
REMARK    2  A    between atoms: C_3  and  O_6 
REMARK    3  A    between atoms: C_3  and  C_4 
REMARK    4  A    between atoms: C_7  and  O_6 
REMARK    5  A    between atoms: C_9  and  C_10 
REMARK    6  A    between atoms: N_15  and  C_14 
REMARK    7  A    between atoms: N_20  and  C_19 
REMARK       I    between atoms: C_22  and  N_20 
ROOT
ATOM      1  C   LIG d   1      -5.194  91.681 117.726  0.00  0.00     0.161 C 
ATOM      2  C   LIG d   1      -5.633  90.986 116.587  0.00  0.00     0.016 C 
ATOM      3  C   LIG d   1      -6.473  91.556 115.603  0.00  0.00     0.038 C 
ATOM      4  C   LIG d   1      -6.811  92.917 115.615  0.00  0.00     0.028 C 
ATOM      5  C   LIG d   1      -6.806  93.530 117.012  0.00  0.00    -0.047 C 
ATOM      6  C   LIG d   1      -5.462  93.200 117.700  0.00  0.00     0.091 C 
ENDROOT
BRANCH   1   7
ATOM      7  O   LIG d   1      -3.793  91.423 117.947  0.00  0.00    -0.368 OA
BRANCH   7   8
ATOM      8  C   LIG d   1      -3.480  90.322 118.835  0.00  0.00     0.119 C 
BRANCH   8   9
ATOM      9  C   LIG d   1      -2.521  90.858 119.916  0.00  0.00     0.028 C 
ATOM     10  C   LIG d   1      -2.013  92.275 119.599  0.00  0.00     0.006 C 
ENDBRANCH   8   9
BRANCH   8  11
ATOM     11  C   LIG d   1      -2.698  89.224 118.108  0.00  0.00     0.028 C 
ATOM     12  C   LIG d   1      -2.432  87.996 118.994  0.00  0.00     0.006 C 
ENDBRANCH   8  11
ENDBRANCH   7   8
ENDBRANCH   1   7
BRANCH   6  13
ATOM     13  N   LIG d   1      -5.407  93.691 119.101  0.00  0.00    -0.311 N 
ATOM     14  C   LIG d   1      -4.868  94.858 119.449  0.00  0.00     0.210 C 
ATOM     15  C   LIG d   1      -4.897  95.163 120.950  0.00  0.00     0.109 C 
ATOM     16  O   LIG d   1      -4.397  95.685 118.653  0.00  0.00    -0.276 OA
ATOM     17  H   LIG d   1      -5.794  93.097 119.808  0.00  0.00     0.149 HD
ENDBRANCH   6  13
BRANCH   5  18
ATOM     18  N   LIG d   1      -7.040  94.979 116.863  0.00  0.00     0.381 N 
ATOM     19  H   LIG d   1      -7.558  95.154 116.026  0.00  0.00    -0.090 HD
ATOM     20  H   LIG d   1      -6.153  95.445 116.789  0.00  0.00    -0.090 HD
ATOM     21  H   LIG d   1      -7.540  95.326 117.651  0.00  0.00    -0.090 HD
ENDBRANCH   5  18
BRANCH   3  22
ATOM     22  C   LIG d   1      -7.017  90.751 114.614  0.00  0.00     0.382 C 
ATOM     23  O   LIG d   1      -7.824  91.236 113.784  0.00  0.00    -0.241 OA
ATOM     24  O   LIG d   1      -6.746  89.536 114.567  0.00  0.00    -0.241 OA
ENDBRANCH   3  22
TORSDOF 7
ENDMDL
MODEL 3
REMARK VINA RESULT:      -5.8     15.349     17.209
REMARK  7 active torsions:
REMARK  status: ('A' for Active; 'I' for Inactive)
REMARK    1  A    between atoms: C_2  and  C_3 
REMARK    2  A    between atoms: C_3  and  O_6 
REMARK    3  A    between atoms: C_3  and  C_4 
REMARK    4  A    between atoms: C_7  and  O_6 
REMARK    5  A    between atoms: C_9  and  C_10 
REMARK    6  A    between atoms: N_15  and  C_14 
REMARK    7  A    between atoms: N_20  and  C_19 
REMARK       I    between atoms: C_22  and  N_20 
ROOT
ATOM      1  C   LIG d   1      -6.111  91.565 118.201  0.00  0.00     0.161 C 
ATOM      2  C   LIG d   1      -6.289  90.869 116.994  0.00  0.00     0.016 C 
ATOM      3  C   LIG d   1      -6.719  91.485 115.796  0.00  0.00     0.038 C 
ATOM      4  C   LIG d   1      -6.856  92.876 115.685  0.00  0.00     0.028 C 
ATOM      5  C   LIG d   1      -7.175  93.561 117.010  0.00  0.00    -0.047 C 
ATOM      6  C   LIG d   1      -6.148  93.103 118.071  0.00  0.00     0.091 C 
ENDROOT
BRANCH   1   7
ATOM      7  O   LIG d   1      -4.884  91.145 118.831  0.00  0.00    -0.368 OA
BRANCH   7   8
ATOM      8  C   LIG d   1      -3.710  91.113 117.983  0.00  0.00     0.119 C 
BRANCH   8   9
ATOM      9  C   LIG d   1      -3.119  89.693 118.064  0.00  0.00     0.028 C 
ATOM     10  C   LIG d   1      -1.625  89.657 117.702  0.00  0.00     0.006 C 
ENDBRANCH   8   9
BRANCH   8  11
ATOM     11  C   LIG d   1      -2.613  92.040 118.515  0.00  0.00     0.028 C 
ATOM     12  C   LIG d   1      -2.903  92.553 119.934  0.00  0.00     0.006 C 
ENDBRANCH   8  11
ENDBRANCH   7   8
ENDBRANCH   1   7
BRANCH   6  13
ATOM     13  N   LIG d   1      -6.438  93.660 119.418  0.00  0.00    -0.311 N 
ATOM     14  C   LIG d   1      -5.883  94.778 119.884  0.00  0.00     0.210 C 
ATOM     15  C   LIG d   1      -6.304  95.166 121.305  0.00  0.00     0.109 C 
ATOM     16  O   LIG d   1      -5.108  95.503 119.243  0.00  0.00    -0.276 OA
ATOM     17  H   LIG d   1      -7.081  93.152 119.994  0.00  0.00     0.149 HD
ENDBRANCH   6  13
BRANCH   5  18
ATOM     18  N   LIG d   1      -7.154  95.017 116.776  0.00  0.00     0.381 N 
ATOM     19  H   LIG d   1      -7.883  95.455 117.303  0.00  0.00    -0.090 HD
ATOM     20  H   LIG d   1      -7.320  95.192 115.801  0.00  0.00    -0.090 HD
ATOM     21  H   LIG d   1      -6.270  95.392 117.042  0.00  0.00    -0.090 HD
ENDBRANCH   5  18
BRANCH   3  22
ATOM     22  C   LIG d   1      -7.056  90.701 114.703  0.00  0.00     0.382 C 
ATOM     23  O   LIG d   1      -7.795  91.166 113.802  0.00  0.00    -0.241 OA
ATOM     24  O   LIG d   1      -6.666  89.520 114.628  0.00  0.00    -0.241 OA
ENDBRANCH   3  22
TORSDOF 7
ENDMDL
MODEL 4
REMARK VINA RESULT:      -5.8      2.330      5.345
REMARK  7 active torsions:
REMARK  status: ('A' for Active; 'I' for Inactive)
REMARK    1  A    between atoms: C_2  and  C_3 
REMARK    2  A    between atoms: C_3  and  O_6 
REMARK    3  A    between atoms: C_3  and  C_4 
REMARK    4  A    between atoms: C_7  and  O_6 
REMARK    5  A    between atoms: C_9  and  C_10 
REMARK    6  A    between atoms: N_15  and  C_14 
REMARK    7  A    between atoms: N_20  and  C_19 
REMARK       I    between atoms: C_22  and  N_20 
ROOT
ATOM      1  C   LIG d   1      -8.194  75.398 116.837  0.00  0.00     0.161 C 
ATOM      2  C   LIG d   1      -8.109  76.801 116.837  0.00  0.00     0.016 C 
ATOM      3  C   LIG d   1      -8.685  77.615 117.839  0.00  0.00     0.038 C 
ATOM      4  C   LIG d   1      -9.257  77.070 118.999  0.00  0.00     0.028 C 
ATOM      5  C   LIG d   1      -9.811  75.664 118.797  0.00  0.00    -0.047 C 
ATOM      6  C   LIG d   1      -8.718  74.782 118.151  0.00  0.00     0.091 C 
ENDROOT
BRANCH   1   7
ATOM      7  O   LIG d   1      -6.913  74.832 116.494  0.00  0.00    -0.368 OA
BRANCH   7   8
ATOM      8  C   LIG d   1      -5.861  75.778 116.183  0.00  0.00     0.119 C 
BRANCH   8   9
ATOM      9  C   LIG d   1      -5.283  75.393 114.807  0.00  0.00     0.028 C 
ATOM     10  C   LIG d   1      -3.966  76.123 114.498  0.00  0.00     0.006 C 
ENDBRANCH   8   9
BRANCH   8  11
ATOM     11  C   LIG d   1      -4.691  75.652 117.163  0.00  0.00     0.028 C 
ATOM     12  C   LIG d   1      -4.592  76.842 118.130  0.00  0.00     0.006 C 
ENDBRANCH   8  11
ENDBRANCH   7   8
ENDBRANCH   1   7
BRANCH   6  13
ATOM     13  N   LIG d   1      -9.204  73.412 117.842  0.00  0.00    -0.311 N 
ATOM     14  C   LIG d   1      -9.190  72.413 118.723  0.00  0.00     0.210 C 
ATOM     15  C   LIG d   1      -9.718  71.076 118.194  0.00  0.00     0.109 C 
ATOM     16  O   LIG d   1      -8.821  72.516 119.903  0.00  0.00    -0.276 OA
ATOM     17  H   LIG d   1      -9.550  73.248 116.917  0.00  0.00     0.149 HD
ENDBRANCH   6  13
BRANCH   5  18
ATOM     18  N   LIG d   1     -10.251  75.165 120.114  0.00  0.00     0.381 N 
ATOM     19  H   LIG d   1     -11.176  74.790 120.042  0.00  0.00    -0.090 HD
ATOM     20  H   LIG d   1     -10.272  75.933 120.762  0.00  0.00    -0.090 HD
ATOM     21  H   LIG d   1      -9.625  74.463 120.440  0.00  0.00    -0.090 HD
ENDBRANCH   5  18
BRANCH   3  22
ATOM     22  C   LIG d   1      -8.726  78.990 117.668  0.00  0.00     0.382 C 
ATOM     23  O   LIG d   1      -7.710  79.601 117.256  0.00  0.00    -0.241 OA
ATOM     24  O   LIG d   1      -9.751  79.633 117.963  0.00  0.00    -0.241 OA
ENDBRANCH   3  22
TORSDOF 7
ENDMDL
MODEL 5
REMARK VINA RESULT:      -5.8      2.278      4.904
REMARK  7 active torsions:
REMARK  status: ('A' for Active; 'I' for Inactive)
REMARK    1  A    between atoms: C_2  and  C_3 
REMARK    2  A    between atoms: C_3  and  O_6 
REMARK    3  A    between atoms: C_3  and  C_4 
REMARK    4  A    between atoms: C_7  and  O_6 
REMARK    5  A    between atoms: C_9  and  C_10 
REMARK    6  A    between atoms: N_15  and  C_14 
REMARK    7  A    between atoms: N_20  and  C_19 
REMARK       I    between atoms: C_22  and  N_20 
ROOT
ATOM      1  C   LIG d   1      -8.679  77.391 117.943  0.00  0.00     0.161 C 
ATOM      2  C   LIG d   1      -9.579  78.436 118.210  0.00  0.00     0.016 C 
ATOM      3  C   LIG d   1      -9.240  79.804 118.091  0.00  0.00     0.038 C 
ATOM      4  C   LIG d   1      -8.015  80.220 117.548  0.00  0.00     0.028 C 
ATOM      5  C   LIG d   1      -6.892  79.206 117.740  0.00  0.00    -0.047 C 
ATOM      6  C   LIG d   1      -7.373  77.824 117.243  0.00  0.00     0.091 C 
ENDROOT
BRANCH   1   7
ATOM      7  O   LIG d   1      -9.338  76.361 117.180  0.00  0.00    -0.368 OA
BRANCH   7   8
ATOM      8  C   LIG d   1      -9.623  75.128 117.886  0.00  0.00     0.119 C 
BRANCH   8   9
ATOM      9  C   LIG d   1      -9.284  75.357 119.372  0.00  0.00     0.028 C 
ATOM     10  C   LIG d   1      -9.574  74.119 120.237  0.00  0.00     0.006 C 
ENDBRANCH   8   9
BRANCH   8  11
ATOM     11  C   LIG d   1      -8.698  73.997 117.428  0.00  0.00     0.028 C 
ATOM     12  C   LIG d   1      -9.461  72.822 116.796  0.00  0.00     0.006 C 
ENDBRANCH   8  11
ENDBRANCH   7   8
ENDBRANCH   1   7
BRANCH   6  13
ATOM     13  N   LIG d   1      -6.365  76.756 117.472  0.00  0.00    -0.311 N 
ATOM     14  C   LIG d   1      -5.463  76.393 116.563  0.00  0.00     0.210 C 
ATOM     15  C   LIG d   1      -4.529  75.258 116.995  0.00  0.00     0.109 C 
ATOM     16  O   LIG d   1      -5.326  76.924 115.450  0.00  0.00    -0.276 OA
ATOM     17  H   LIG d   1      -6.384  76.293 118.360  0.00  0.00     0.149 HD
ENDBRANCH   6  13
BRANCH   5  18
ATOM     18  N   LIG d   1      -5.712  79.704 117.009  0.00  0.00     0.381 N 
ATOM     19  H   LIG d   1      -5.557  79.145 116.194  0.00  0.00    -0.090 HD
ATOM     20  H   LIG d   1      -4.905  79.628 117.603  0.00  0.00    -0.090 HD
ATOM     21  H   LIG d   1      -5.850  80.655 116.746  0.00  0.00    -0.090 HD
ENDBRANCH   5  18
BRANCH   3  22
ATOM     22  C   LIG d   1     -10.117  80.772 118.556  0.00  0.00     0.382 C 
ATOM     23  O   LIG d   1     -10.688  81.541 117.746  0.00  0.00    -0.241 OA
ATOM     24  O   LIG d   1     -10.311  80.915 119.778  0.00  0.00    -0.241 OA
ENDBRANCH   3  22
TORSDOF 7
ENDMDL
MODEL 6
REMARK VINA RESULT:      -5.6      2.248      5.038
REMARK  7 active torsions:
REMARK  status: ('A' for Active; 'I' for Inactive)
REMARK    1  A    between atoms: C_2  and  C_3 
REMARK    2  A    between atoms: C_3  and  O_6 
REMARK    3  A    between atoms: C_3  and  C_4 
REMARK    4  A    between atoms: C_7  and  O_6 
REMARK    5  A    between atoms: C_9  and  C_10 
REMARK    6  A    between atoms: N_15  and  C_14 
REMARK    7  A    between atoms: N_20  and  C_19 
REMARK       I    between atoms: C_22  and  N_20 
ROOT
ATOM      1  C   LIG d   1      -7.175  76.791 117.097  0.00  0.00     0.161 C 
ATOM      2  C   LIG d   1      -7.016  78.182 117.208  0.00  0.00     0.016 C 
ATOM      3  C   LIG d   1      -7.996  79.035 117.768  0.00  0.00     0.038 C 
ATOM      4  C   LIG d   1      -9.144  78.532 118.396  0.00  0.00     0.028 C 
ATOM      5  C   LIG d   1      -9.584  77.174 117.859  0.00  0.00    -0.047 C 
ATOM      6  C   LIG d   1      -8.374  76.212 117.878  0.00  0.00     0.091 C 
ENDROOT
BRANCH   1   7
ATOM      7  O   LIG d   1      -5.956  76.127 117.486  0.00  0.00    -0.368 OA
BRANCH   7   8
ATOM      8  C   LIG d   1      -5.424  75.166 116.542  0.00  0.00     0.119 C 
BRANCH   8   9
ATOM      9  C   LIG d   1      -3.893  75.148 116.712  0.00  0.00     0.028 C 
ATOM     10  C   LIG d   1      -3.446  75.733 118.063  0.00  0.00     0.006 C 
ENDBRANCH   8   9
BRANCH   8  11
ATOM     11  C   LIG d   1      -5.667  75.611 115.097  0.00  0.00     0.028 C 
ATOM     12  C   LIG d   1      -4.365  75.933 114.346  0.00  0.00     0.006 C 
ENDBRANCH   8  11
ENDBRANCH   7   8
ENDBRANCH   1   7
BRANCH   6  13
ATOM     13  N   LIG d   1      -8.695  74.886 117.290  0.00  0.00    -0.311 N 
ATOM     14  C   LIG d   1      -9.128  73.851 118.008  0.00  0.00     0.210 C 
ATOM     15  C   LIG d   1      -9.381  72.569 117.209  0.00  0.00     0.109 C 
ATOM     16  O   LIG d   1      -9.358  73.883 119.227  0.00  0.00    -0.276 OA
ATOM     17  H   LIG d   1      -8.567  74.781 116.303  0.00  0.00     0.149 HD
ENDBRANCH   6  13
BRANCH   5  18
ATOM     18  N   LIG d   1     -10.706  76.707 118.694  0.00  0.00     0.381 N 
ATOM     19  H   LIG d   1     -10.617  77.076 119.620  0.00  0.00    -0.090 HD
ATOM     20  H   LIG d   1     -10.674  75.704 118.750  0.00  0.00    -0.090 HD
ATOM     21  H   LIG d   1     -11.572  76.997 118.295  0.00  0.00    -0.090 HD
ENDBRANCH   5  18
BRANCH   3  22
ATOM     22  C   LIG d   1      -7.849  80.410 117.666  0.00  0.00     0.382 C 
ATOM     23  O   LIG d   1      -7.070  80.896 116.810  0.00  0.00    -0.241 OA
ATOM     24  O   LIG d   1      -8.451  81.169 118.448  0.00  0.00    -0.241 OA
ENDBRANCH   3  22
TORSDOF 7
ENDMDL
MODEL 7
REMARK VINA RESULT:      -5.6      2.234      4.468
REMARK  7 active torsions:
REMARK  status: ('A' for Active; 'I' for Inactive)
REMARK    1  A    between atoms: C_2  and  C_3 
REMARK    2  A    between atoms: C_3  and  O_6 
REMARK    3  A    between atoms: C_3  and  C_4 
REMARK    4  A    between atoms: C_7  and  O_6 
REMARK    5  A    between atoms: C_9  and  C_10 
REMARK    6  A    between atoms: N_15  and  C_14 
REMARK    7  A    between atoms: N_20  and  C_19 
REMARK       I    between atoms: C_22  and  N_20 
ROOT
ATOM      1  C   LIG d   1      -6.877  77.093 117.034  0.00  0.00     0.161 C 
ATOM      2  C   LIG d   1      -5.864  77.067 116.061  0.00  0.00     0.016 C 
ATOM      3  C   LIG d   1      -5.447  75.888 115.402  0.00  0.00     0.038 C 
ATOM      4  C   LIG d   1      -6.123  74.670 115.564  0.00  0.00     0.028 C 
ATOM      5  C   LIG d   1      -6.825  74.541 116.911  0.00  0.00    -0.047 C 
ATOM      6  C   LIG d   1      -7.702  75.793 117.143  0.00  0.00     0.091 C 
ENDROOT
BRANCH   1   7
ATOM      7  O   LIG d   1      -7.746  78.219 116.805  0.00  0.00    -0.368 OA
BRANCH   7   8
ATOM      8  C   LIG d   1      -7.777  79.223 117.850  0.00  0.00     0.119 C 
BRANCH   8   9
ATOM      9  C   LIG d   1      -9.196  79.824 117.874  0.00  0.00     0.028 C 
ATOM     10  C   LIG d   1      -9.880  79.660 119.241  0.00  0.00     0.006 C 
ENDBRANCH   8   9
BRANCH   8  11
ATOM     11  C   LIG d   1      -6.845  80.394 117.525  0.00  0.00     0.028 C 
ATOM     12  C   LIG d   1      -7.607  81.667 117.123  0.00  0.00     0.006 C 
ENDBRANCH   8  11
ENDBRANCH   7   8
ENDBRANCH   1   7
BRANCH   6  13
ATOM     13  N   LIG d   1      -8.358  75.787 118.476  0.00  0.00    -0.311 N 
ATOM     14  C   LIG d   1      -9.652  76.042 118.657  0.00  0.00     0.210 C 
ATOM     15  C   LIG d   1     -10.121  76.004 120.115  0.00  0.00     0.109 C 
ATOM     16  O   LIG d   1     -10.463  76.265 117.746  0.00  0.00    -0.276 OA
ATOM     17  H   LIG d   1      -7.780  75.585 119.268  0.00  0.00     0.149 HD
ENDBRANCH   6  13
BRANCH   5  18
ATOM     18  N   LIG d   1      -7.601  73.287 116.892  0.00  0.00     0.381 N 
ATOM     19  H   LIG d   1      -8.301  73.333 116.177  0.00  0.00    -0.090 HD
ATOM     20  H   LIG d   1      -8.063  73.176 117.777  0.00  0.00    -0.090 HD
ATOM     21  H   LIG d   1      -6.996  72.513 116.725  0.00  0.00    -0.090 HD
ENDBRANCH   5  18
BRANCH   3  22
ATOM     22  C   LIG d   1      -4.316  75.912 114.600  0.00  0.00     0.382 C 
ATOM     23  O   LIG d   1      -3.235  75.440 115.026  0.00  0.00    -0.241 OA
ATOM     24  O   LIG d   1      -4.353  76.440 113.472  0.00  0.00    -0.241 OA
ENDBRANCH   3  22
TORSDOF 7
ENDMDL
MODEL 8
REMARK VINA RESULT:      -5.6      2.036      4.977
REMARK  7 active torsions:
REMARK  status: ('A' for Active; 'I' for Inactive)
REMARK    1  A    between atoms: C_2  and  C_3 
REMARK    2  A    between atoms: C_3  and  O_6 
REMARK    3  A    between atoms: C_3  and  C_4 
REMARK    4  A    between atoms: C_7  and  O_6 
REMARK    5  A    between atoms: C_9  and  C_10 
REMARK    6  A    between atoms: N_15  and  C_14 
REMARK    7  A    between atoms: N_20  and  C_19 
REMARK       I    between atoms: C_22  and  N_20 
ROOT
ATOM      1  C   LIG d   1      -6.951  76.510 117.071  0.00  0.00     0.161 C 
ATOM      2  C   LIG d   1      -7.470  75.215 116.905  0.00  0.00     0.016 C 
ATOM      3  C   LIG d   1      -8.779  74.846 117.288  0.00  0.00     0.038 C 
ATOM      4  C   LIG d   1      -9.717  75.792 117.729  0.00  0.00     0.028 C 
ATOM      5  C   LIG d   1      -9.083  77.012 118.387  0.00  0.00    -0.047 C 
ATOM      6  C   LIG d   1      -7.996  77.582 117.447  0.00  0.00     0.091 C 
ENDROOT
BRANCH   1   7
ATOM      7  O   LIG d   1      -6.233  76.905 115.886  0.00  0.00    -0.368 OA
BRANCH   7   8
ATOM      8  C   LIG d   1      -4.790  76.955 116.002  0.00  0.00     0.119 C 
BRANCH   8   9
ATOM      9  C   LIG d   1      -4.211  75.908 115.031  0.00  0.00     0.028 C 
ATOM     10  C   LIG d   1      -5.205  75.521 113.924  0.00  0.00     0.006 C 
ENDBRANCH   8   9
BRANCH   8  11
ATOM     11  C   LIG d   1      -4.327  76.516 117.394  0.00  0.00     0.028 C 
ATOM     12  C   LIG d   1      -3.541  75.196 117.373  0.00  0.00     0.006 C 
ENDBRANCH   8  11
ENDBRANCH   7   8
ENDBRANCH   1   7
BRANCH   6  13
ATOM     13  N   LIG d   1      -7.267  78.727 118.052  0.00  0.00    -0.311 N 
ATOM     14  C   LIG d   1      -7.569  80.001 117.804  0.00  0.00     0.210 C 
ATOM     15  C   LIG d   1      -6.680  81.026 118.514  0.00  0.00     0.109 C 
ATOM     16  O   LIG d   1      -8.509  80.379 117.088  0.00  0.00    -0.276 OA
ATOM     17  H   LIG d   1      -6.509  78.511 118.669  0.00  0.00     0.149 HD
ENDBRANCH   6  13
BRANCH   5  18
ATOM     18  N   LIG d   1     -10.163  77.976 118.673  0.00  0.00     0.381 N 
ATOM     19  H   LIG d   1      -9.872  78.607 119.393  0.00  0.00    -0.090 HD
ATOM     20  H   LIG d   1     -10.968  77.474 119.001  0.00  0.00    -0.090 HD
ATOM     21  H   LIG d   1     -10.392  78.485 117.848  0.00  0.00    -0.090 HD
ENDBRANCH   5  18
BRANCH   3  22
ATOM     22  C   LIG d   1      -9.150  73.510 117.271  0.00  0.00     0.382 C 
ATOM     23  O   LIG d   1      -8.761  72.739 118.181  0.00  0.00    -0.241 OA
ATOM     24  O   LIG d   1      -9.832  73.056 116.332  0.00  0.00    -0.241 OA
ENDBRANCH   3  22
TORSDOF 7
ENDMDL
MODEL 9
REMARK VINA RESULT:      -5.4      2.407      4.854
REMARK  7 active torsions:
REMARK  status: ('A' for Active; 'I' for Inactive)
REMARK    1  A    between atoms: C_2  and  C_3 
REMARK    2  A    between atoms: C_3  and  O_6 
REMARK    3  A    between atoms: C_3  and  C_4 
REMARK    4  A    between atoms: C_7  and  O_6 
REMARK    5  A    between atoms: C_9  and  C_10 
REMARK    6  A    between atoms: N_15  and  C_14 
REMARK    7  A    between atoms: N_20  and  C_19 
REMARK       I    between atoms: C_22  and  N_20 
ROOT
ATOM      1  C   LIG d   1      -7.432  77.718 118.462  0.00  0.00     0.161 C 
ATOM      2  C   LIG d   1      -6.440  77.649 117.470  0.00  0.00     0.016 C 
ATOM      3  C   LIG d   1      -6.486  76.745 116.384  0.00  0.00     0.038 C 
ATOM      4  C   LIG d   1      -7.611  75.945 116.133  0.00  0.00     0.028 C 
ATOM      5  C   LIG d   1      -8.414  75.618 117.387  0.00  0.00    -0.047 C 
ATOM      6  C   LIG d   1      -8.721  76.931 118.143  0.00  0.00     0.091 C 
ENDROOT
BRANCH   1   7
ATOM      7  O   LIG d   1      -7.744  79.096 118.746  0.00  0.00    -0.368 OA
BRANCH   7   8
ATOM      8  C   LIG d   1      -8.380  79.839 117.678  0.00  0.00     0.119 C 
BRANCH   8   9
ATOM      9  C   LIG d   1      -7.587  81.147 117.488  0.00  0.00     0.028 C 
ATOM     10  C   LIG d   1      -6.916  81.620 118.789  0.00  0.00     0.006 C 
ENDBRANCH   8   9
BRANCH   8  11
ATOM     11  C   LIG d   1      -9.795  80.276 118.068  0.00  0.00     0.028 C 
ATOM     12  C   LIG d   1     -10.291  81.483 117.255  0.00  0.00     0.006 C 
ENDBRANCH   8  11
ENDBRANCH   7   8
ENDBRANCH   1   7
BRANCH   6  13
ATOM     13  N   LIG d   1      -9.431  76.693 119.427  0.00  0.00    -0.311 N 
ATOM     14  C   LIG d   1     -10.755  76.758 119.555  0.00  0.00     0.210 C 
ATOM     15  C   LIG d   1     -11.282  76.499 120.970  0.00  0.00     0.109 C 
ATOM     16  O   LIG d   1     -11.546  76.974 118.624  0.00  0.00    -0.276 OA
ATOM     17  H   LIG d   1      -8.868  76.480 120.227  0.00  0.00     0.149 HD
ENDBRANCH   6  13
BRANCH   5  18
ATOM     18  N   LIG d   1      -9.630  74.898 116.963  0.00  0.00     0.381 N 
ATOM     19  H   LIG d   1      -9.659  74.842 115.964  0.00  0.00    -0.090 HD
ATOM     20  H   LIG d   1     -10.436  75.410 117.274  0.00  0.00    -0.090 HD
ATOM     21  H   LIG d   1      -9.638  73.982 117.354  0.00  0.00    -0.090 HD
ENDBRANCH   5  18
BRANCH   3  22
ATOM     22  C   LIG d   1      -5.381  76.605 115.558  0.00  0.00     0.382 C 
ATOM     23  O   LIG d   1      -5.261  75.584 114.839  0.00  0.00    -0.241 OA
ATOM     24  O   LIG d   1      -4.481  77.465 115.557  0.00  0.00    -0.241 OA
ENDBRANCH   3  22
TORSDOF 7
ENDMDL
