MODEL 1
REMARK VINA RESULT:      -5.1      0.000      0.000
REMARK  7 active torsions:
REMARK  status: ('A' for Active; 'I' for Inactive)
REMARK    1  A    between atoms: C_2  and  C_3 
REMARK    2  A    between atoms: C_3  and  O_6 
REMARK    3  A    between atoms: C_3  and  C_4 
REMARK    4  A    between atoms: C_7  and  O_6 
REMARK    5  A    between atoms: C_9  and  C_10 
REMARK    6  A    between atoms: N_15  and  C_14 
REMARK    7  A    between atoms: N_20  and  C_19 
REMARK       I    between atoms: C_22  and  N_20 
ROOT
ATOM      1  C   LIG d   1       1.307  88.301 116.206  0.00  0.00     0.161 C 
ATOM      2  C   LIG d   1       0.016  88.347 116.758  0.00  0.00     0.016 C 
ATOM      3  C   LIG d   1      -0.539  89.507 117.347  0.00  0.00     0.038 C 
ATOM      4  C   LIG d   1       0.109  90.750 117.287  0.00  0.00     0.028 C 
ATOM      5  C   LIG d   1       1.626  90.639 117.189  0.00  0.00    -0.047 C 
ATOM      6  C   LIG d   1       1.985  89.677 116.033  0.00  0.00     0.091 C 
ENDROOT
BRANCH   1   7
ATOM      7  O   LIG d   1       1.277  87.596 114.950  0.00  0.00    -0.368 OA
BRANCH   7   8
ATOM      8  C   LIG d   1       1.513  86.168 115.015  0.00  0.00     0.119 C 
BRANCH   8   9
ATOM      9  C   LIG d   1       2.901  85.900 114.401  0.00  0.00     0.028 C 
ATOM     10  C   LIG d   1       3.098  86.623 113.058  0.00  0.00     0.006 C 
ENDBRANCH   8   9
BRANCH   8  11
ATOM     11  C   LIG d   1       0.524  85.399 114.134  0.00  0.00     0.028 C 
ATOM     12  C   LIG d   1      -0.920  85.470 114.656  0.00  0.00     0.006 C 
ENDBRANCH   8  11
ENDBRANCH   7   8
ENDBRANCH   1   7
BRANCH   6  13
ATOM     13  N   LIG d   1       3.449  89.446 115.922  0.00  0.00    -0.311 N 
ATOM     14  C   LIG d   1       4.150  89.703 114.819  0.00  0.00     0.210 C 
ATOM     15  C   LIG d   1       5.643  89.374 114.910  0.00  0.00     0.109 C 
ATOM     16  O   LIG d   1       3.682  90.204 113.785  0.00  0.00    -0.276 OA
ATOM     17  H   LIG d   1       3.914  89.070 116.725  0.00  0.00     0.149 HD
ENDBRANCH   6  13
BRANCH   5  18
ATOM     18  N   LIG d   1       2.161  91.999 116.996  0.00  0.00     0.381 N 
ATOM     19  H   LIG d   1       1.569  92.664 117.452  0.00  0.00    -0.090 HD
ATOM     20  H   LIG d   1       2.171  92.208 116.013  0.00  0.00    -0.090 HD
ATOM     21  H   LIG d   1       3.085  92.058 117.364  0.00  0.00    -0.090 HD
ENDBRANCH   5  18
BRANCH   3  22
ATOM     22  C   LIG d   1      -1.737  89.421 118.039  0.00  0.00     0.382 C 
ATOM     23  O   LIG d   1      -2.749  88.930 117.482  0.00  0.00    -0.241 OA
ATOM     24  O   LIG d   1      -1.831  89.867 119.198  0.00  0.00    -0.241 OA
ENDBRANCH   3  22
TORSDOF 7
ENDMDL
MODEL 2
REMARK VINA RESULT:      -5.1      9.916     12.072
REMARK  7 active torsions:
REMARK  status: ('A' for Active; 'I' for Inactive)
REMARK    1  A    between atoms: C_2  and  C_3 
REMARK    2  A    between atoms: C_3  and  O_6 
REMARK    3  A    between atoms: C_3  and  C_4 
REMARK    4  A    between atoms: C_7  and  O_6 
REMARK    5  A    between atoms: C_9  and  C_10 
REMARK    6  A    between atoms: N_15  and  C_14 
REMARK    7  A    between atoms: N_20  and  C_19 
REMARK       I    between atoms: C_22  and  N_20 
ROOT
ATOM      1  C   LIG d   1      -6.334  79.502 118.362  0.00  0.00     0.161 C 
ATOM      2  C   LIG d   1      -7.672  79.126 118.567  0.00  0.00     0.016 C 
ATOM      3  C   LIG d   1      -8.696  80.042 118.901  0.00  0.00     0.038 C 
ATOM      4  C   LIG d   1      -8.478  81.428 118.905  0.00  0.00     0.028 C 
ATOM      5  C   LIG d   1      -7.032  81.814 119.199  0.00  0.00    -0.047 C 
ATOM      6  C   LIG d   1      -6.100  81.024 118.253  0.00  0.00     0.091 C 
ENDROOT
BRANCH   1   7
ATOM      7  O   LIG d   1      -5.810  78.830 117.201  0.00  0.00    -0.368 OA
BRANCH   7   8
ATOM      8  C   LIG d   1      -5.279  77.499 117.420  0.00  0.00     0.119 C 
BRANCH   8   9
ATOM      9  C   LIG d   1      -3.759  77.560 117.171  0.00  0.00     0.028 C 
ATOM     10  C   LIG d   1      -2.971  77.918 118.442  0.00  0.00     0.006 C 
ENDBRANCH   8   9
BRANCH   8  11
ATOM     11  C   LIG d   1      -5.819  76.507 116.386  0.00  0.00     0.028 C 
ATOM     12  C   LIG d   1      -7.155  75.874 116.808  0.00  0.00     0.006 C 
ENDBRANCH   8  11
ENDBRANCH   7   8
ENDBRANCH   1   7
BRANCH   6  13
ATOM     13  N   LIG d   1      -4.662  81.278 118.531  0.00  0.00    -0.311 N 
ATOM     14  C   LIG d   1      -3.780  81.604 117.588  0.00  0.00     0.210 C 
ATOM     15  C   LIG d   1      -2.345  81.804 118.086  0.00  0.00     0.109 C 
ATOM     16  O   LIG d   1      -4.055  81.779 116.391  0.00  0.00    -0.276 OA
ATOM     17  H   LIG d   1      -4.358  81.189 119.481  0.00  0.00     0.149 HD
ENDBRANCH   6  13
BRANCH   5  18
ATOM     18  N   LIG d   1      -6.918  83.275 119.035  0.00  0.00     0.381 N 
ATOM     19  H   LIG d   1      -7.495  83.577 118.276  0.00  0.00    -0.090 HD
ATOM     20  H   LIG d   1      -5.965  83.505 118.818  0.00  0.00    -0.090 HD
ATOM     21  H   LIG d   1      -7.195  83.735 119.875  0.00  0.00    -0.090 HD
ENDBRANCH   5  18
BRANCH   3  22
ATOM     22  C   LIG d   1      -9.945  79.571 119.275  0.00  0.00     0.382 C 
ATOM     23  O   LIG d   1     -10.607  80.177 120.152  0.00  0.00    -0.241 OA
ATOM     24  O   LIG d   1     -10.399  78.522 118.779  0.00  0.00    -0.241 OA
ENDBRANCH   3  22
TORSDOF 7
ENDMDL
MODEL 3
REMARK VINA RESULT:      -5.0     10.443     13.143
REMARK  7 active torsions:
REMARK  status: ('A' for Active; 'I' for Inactive)
REMARK    1  A    between atoms: C_2  and  C_3 
REMARK    2  A    between atoms: C_3  and  O_6 
REMARK    3  A    between atoms: C_3  and  C_4 
REMARK    4  A    between atoms: C_7  and  O_6 
REMARK    5  A    between atoms: C_9  and  C_10 
REMARK    6  A    between atoms: N_15  and  C_14 
REMARK    7  A    between atoms: N_20  and  C_19 
REMARK       I    between atoms: C_22  and  N_20 
ROOT
ATOM      1  C   LIG d   1      -1.932  76.341 114.845  0.00  0.00     0.161 C 
ATOM      2  C   LIG d   1      -1.568  75.316 115.733  0.00  0.00     0.016 C 
ATOM      3  C   LIG d   1      -0.979  75.554 116.997  0.00  0.00     0.038 C 
ATOM      4  C   LIG d   1      -0.852  76.848 117.524  0.00  0.00     0.028 C 
ATOM      5  C   LIG d   1      -0.743  77.930 116.454  0.00  0.00    -0.047 C 
ATOM      6  C   LIG d   1      -1.904  77.761 115.449  0.00  0.00     0.091 C 
ENDROOT
BRANCH   1   7
ATOM      7  O   LIG d   1      -3.229  76.062 114.282  0.00  0.00    -0.368 OA
BRANCH   7   8
ATOM      8  C   LIG d   1      -4.214  75.512 115.192  0.00  0.00     0.119 C 
BRANCH   8   9
ATOM      9  C   LIG d   1      -4.946  74.376 114.451  0.00  0.00     0.028 C 
ATOM     10  C   LIG d   1      -6.054  73.737 115.306  0.00  0.00     0.006 C 
ENDBRANCH   8   9
BRANCH   8  11
ATOM     11  C   LIG d   1      -5.297  76.541 115.528  0.00  0.00     0.028 C 
ATOM     12  C   LIG d   1      -5.108  77.174 116.916  0.00  0.00     0.006 C 
ENDBRANCH   8  11
ENDBRANCH   7   8
ENDBRANCH   1   7
BRANCH   6  13
ATOM     13  N   LIG d   1      -1.824  78.727 114.322  0.00  0.00    -0.311 N 
ATOM     14  C   LIG d   1      -2.439  79.909 114.325  0.00  0.00     0.210 C 
ATOM     15  C   LIG d   1      -2.242  80.743 113.055  0.00  0.00     0.109 C 
ATOM     16  O   LIG d   1      -3.103  80.358 115.271  0.00  0.00    -0.276 OA
ATOM     17  H   LIG d   1      -1.280  78.456 113.527  0.00  0.00     0.149 HD
ENDBRANCH   6  13
BRANCH   5  18
ATOM     18  N   LIG d   1      -0.756  79.236 117.139  0.00  0.00     0.381 N 
ATOM     19  H   LIG d   1      -0.675  79.972 116.466  0.00  0.00    -0.090 HD
ATOM     20  H   LIG d   1       0.034  79.287 117.758  0.00  0.00    -0.090 HD
ATOM     21  H   LIG d   1      -1.600  79.341 117.657  0.00  0.00    -0.090 HD
ENDBRANCH   5  18
BRANCH   3  22
ATOM     22  C   LIG d   1      -0.472  74.492 117.730  0.00  0.00     0.382 C 
ATOM     23  O   LIG d   1      -0.375  74.581 118.977  0.00  0.00    -0.241 OA
ATOM     24  O   LIG d   1      -0.070  73.462 117.155  0.00  0.00    -0.241 OA
ENDBRANCH   3  22
TORSDOF 7
ENDMDL
MODEL 4
REMARK VINA RESULT:      -5.0     11.696     13.985
REMARK  7 active torsions:
REMARK  status: ('A' for Active; 'I' for Inactive)
REMARK    1  A    between atoms: C_2  and  C_3 
REMARK    2  A    between atoms: C_3  and  O_6 
REMARK    3  A    between atoms: C_3  and  C_4 
REMARK    4  A    between atoms: C_7  and  O_6 
REMARK    5  A    between atoms: C_9  and  C_10 
REMARK    6  A    between atoms: N_15  and  C_14 
REMARK    7  A    between atoms: N_20  and  C_19 
REMARK       I    between atoms: C_22  and  N_20 
ROOT
ATOM      1  C   LIG d   1      -3.280  77.145 115.216  0.00  0.00     0.161 C 
ATOM      2  C   LIG d   1      -2.341  76.175 114.827  0.00  0.00     0.016 C 
ATOM      3  C   LIG d   1      -1.365  75.642 115.699  0.00  0.00     0.038 C 
ATOM      4  C   LIG d   1      -1.357  75.936 117.071  0.00  0.00     0.028 C 
ATOM      5  C   LIG d   1      -1.968  77.293 117.404  0.00  0.00    -0.047 C 
ATOM      6  C   LIG d   1      -3.358  77.395 116.737  0.00  0.00     0.091 C 
ENDROOT
BRANCH   1   7
ATOM      7  O   LIG d   1      -4.580  76.803 114.697  0.00  0.00    -0.368 OA
BRANCH   7   8
ATOM      8  C   LIG d   1      -5.237  75.672 115.318  0.00  0.00     0.119 C 
BRANCH   8   9
ATOM      9  C   LIG d   1      -5.377  74.572 114.248  0.00  0.00     0.028 C 
ATOM     10  C   LIG d   1      -5.659  73.189 114.860  0.00  0.00     0.006 C 
ENDBRANCH   8   9
BRANCH   8  11
ATOM     11  C   LIG d   1      -6.670  76.018 115.733  0.00  0.00     0.028 C 
ATOM     12  C   LIG d   1      -6.936  75.769 117.226  0.00  0.00     0.006 C 
ENDBRANCH   8  11
ENDBRANCH   7   8
ENDBRANCH   1   7
BRANCH   6  13
ATOM     13  N   LIG d   1      -3.989  78.725 116.942  0.00  0.00    -0.311 N 
ATOM     14  C   LIG d   1      -4.810  78.998 117.955  0.00  0.00     0.210 C 
ATOM     15  C   LIG d   1      -5.366  80.426 117.969  0.00  0.00     0.109 C 
ATOM     16  O   LIG d   1      -5.104  78.204 118.861  0.00  0.00    -0.276 OA
ATOM     17  H   LIG d   1      -3.780  79.437 116.270  0.00  0.00     0.149 HD
ENDBRANCH   6  13
BRANCH   5  18
ATOM     18  N   LIG d   1      -2.021  77.410 118.873  0.00  0.00     0.381 N 
ATOM     19  H   LIG d   1      -1.351  78.085 119.184  0.00  0.00    -0.090 HD
ATOM     20  H   LIG d   1      -1.785  76.521 119.279  0.00  0.00    -0.090 HD
ATOM     21  H   LIG d   1      -2.936  77.681 119.161  0.00  0.00    -0.090 HD
ENDBRANCH   5  18
BRANCH   3  22
ATOM     22  C   LIG d   1      -0.356  74.837 115.193  0.00  0.00     0.382 C 
ATOM     23  O   LIG d   1       0.202  73.991 115.932  0.00  0.00    -0.241 OA
ATOM     24  O   LIG d   1       0.033  74.975 114.018  0.00  0.00    -0.241 OA
ENDBRANCH   3  22
TORSDOF 7
ENDMDL
MODEL 5
REMARK VINA RESULT:      -4.9      5.104      7.910
REMARK  7 active torsions:
REMARK  status: ('A' for Active; 'I' for Inactive)
REMARK    1  A    between atoms: C_2  and  C_3 
REMARK    2  A    between atoms: C_3  and  O_6 
REMARK    3  A    between atoms: C_3  and  C_4 
REMARK    4  A    between atoms: C_7  and  O_6 
REMARK    5  A    between atoms: C_9  and  C_10 
REMARK    6  A    between atoms: N_15  and  C_14 
REMARK    7  A    between atoms: N_20  and  C_19 
REMARK       I    between atoms: C_22  and  N_20 
ROOT
ATOM      1  C   LIG d   1      -3.277  92.217 118.293  0.00  0.00     0.161 C 
ATOM      2  C   LIG d   1      -4.414  91.963 117.507  0.00  0.00     0.016 C 
ATOM      3  C   LIG d   1      -4.563  90.808 116.705  0.00  0.00     0.038 C 
ATOM      4  C   LIG d   1      -3.645  89.749 116.753  0.00  0.00     0.028 C 
ATOM      5  C   LIG d   1      -2.238  90.184 117.146  0.00  0.00    -0.047 C 
ATOM      6  C   LIG d   1      -2.315  91.020 118.444  0.00  0.00     0.091 C 
ENDROOT
BRANCH   1   7
ATOM      7  O   LIG d   1      -3.678  92.704 119.589  0.00  0.00    -0.368 OA
BRANCH   7   8
ATOM      8  C   LIG d   1      -4.922  93.445 119.634  0.00  0.00     0.119 C 
BRANCH   8   9
ATOM      9  C   LIG d   1      -4.570  94.928 119.863  0.00  0.00     0.028 C 
ATOM     10  C   LIG d   1      -3.277  95.105 120.676  0.00  0.00     0.006 C 
ENDBRANCH   8   9
BRANCH   8  11
ATOM     11  C   LIG d   1      -5.769  93.039 120.844  0.00  0.00     0.028 C 
ATOM     12  C   LIG d   1      -7.078  93.837 120.950  0.00  0.00     0.006 C 
ENDBRANCH   8  11
ENDBRANCH   7   8
ENDBRANCH   1   7
BRANCH   6  13
ATOM     13  N   LIG d   1      -0.990  91.557 118.852  0.00  0.00    -0.311 N 
ATOM     14  C   LIG d   1      -0.178  90.934 119.703  0.00  0.00     0.210 C 
ATOM     15  C   LIG d   1       1.131  91.670 120.004  0.00  0.00     0.109 C 
ATOM     16  O   LIG d   1      -0.403  89.826 120.214  0.00  0.00    -0.276 OA
ATOM     17  H   LIG d   1      -0.715  92.437 118.461  0.00  0.00     0.149 HD
ENDBRANCH   6  13
BRANCH   5  18
ATOM     18  N   LIG d   1      -1.418  88.966 117.291  0.00  0.00     0.381 N 
ATOM     19  H   LIG d   1      -1.964  88.161 117.056  0.00  0.00    -0.090 HD
ATOM     20  H   LIG d   1      -1.128  88.882 118.249  0.00  0.00    -0.090 HD
ATOM     21  H   LIG d   1      -0.620  89.020 116.697  0.00  0.00    -0.090 HD
ENDBRANCH   5  18
BRANCH   3  22
ATOM     22  C   LIG d   1      -5.622  90.723 115.814  0.00  0.00     0.382 C 
ATOM     23  O   LIG d   1      -6.027  91.752 115.222  0.00  0.00    -0.241 OA
ATOM     24  O   LIG d   1      -6.205  89.638 115.628  0.00  0.00    -0.241 OA
ENDBRANCH   3  22
TORSDOF 7
ENDMDL
MODEL 6
REMARK VINA RESULT:      -4.9     10.037     12.126
REMARK  7 active torsions:
REMARK  status: ('A' for Active; 'I' for Inactive)
REMARK    1  A    between atoms: C_2  and  C_3 
REMARK    2  A    between atoms: C_3  and  O_6 
REMARK    3  A    between atoms: C_3  and  C_4 
REMARK    4  A    between atoms: C_7  and  O_6 
REMARK    5  A    between atoms: C_9  and  C_10 
REMARK    6  A    between atoms: N_15  and  C_14 
REMARK    7  A    between atoms: N_20  and  C_19 
REMARK       I    between atoms: C_22  and  N_20 
ROOT
ATOM      1  C   LIG d   1      -5.037  78.012 117.047  0.00  0.00     0.161 C 
ATOM      2  C   LIG d   1      -6.241  78.065 117.769  0.00  0.00     0.016 C 
ATOM      3  C   LIG d   1      -6.690  79.221 118.447  0.00  0.00     0.038 C 
ATOM      4  C   LIG d   1      -6.036  80.456 118.323  0.00  0.00     0.028 C 
ATOM      5  C   LIG d   1      -4.547  80.324 118.019  0.00  0.00    -0.047 C 
ATOM      6  C   LIG d   1      -4.364  79.380 116.808  0.00  0.00     0.091 C 
ENDROOT
BRANCH   1   7
ATOM      7  O   LIG d   1      -5.248  77.332 115.794  0.00  0.00    -0.368 OA
BRANCH   7   8
ATOM      8  C   LIG d   1      -4.865  75.936 115.754  0.00  0.00     0.119 C 
BRANCH   8   9
ATOM      9  C   LIG d   1      -3.554  75.838 114.949  0.00  0.00     0.028 C 
ATOM     10  C   LIG d   1      -2.332  75.584 115.847  0.00  0.00     0.006 C 
ENDBRANCH   8   9
BRANCH   8  11
ATOM     11  C   LIG d   1      -5.883  75.100 114.973  0.00  0.00     0.028 C 
ATOM     12  C   LIG d   1      -5.315  73.751 114.505  0.00  0.00     0.006 C 
ENDBRANCH   8  11
ENDBRANCH   7   8
ENDBRANCH   1   7
BRANCH   6  13
ATOM     13  N   LIG d   1      -2.933  79.130 116.496  0.00  0.00    -0.311 N 
ATOM     14  C   LIG d   1      -2.362  79.482 115.345  0.00  0.00     0.210 C 
ATOM     15  C   LIG d   1      -0.880  79.112 115.220  0.00  0.00     0.109 C 
ATOM     16  O   LIG d   1      -2.933  80.093 114.430  0.00  0.00    -0.276 OA
ATOM     17  H   LIG d   1      -2.388  78.666 117.196  0.00  0.00     0.149 HD
ENDBRANCH   6  13
BRANCH   5  18
ATOM     18  N   LIG d   1      -4.020  81.681 117.779  0.00  0.00     0.381 N 
ATOM     19  H   LIG d   1      -4.749  82.271 117.433  0.00  0.00    -0.090 HD
ATOM     20  H   LIG d   1      -3.297  81.630 117.083  0.00  0.00    -0.090 HD
ATOM     21  H   LIG d   1      -3.651  82.057 118.625  0.00  0.00    -0.090 HD
ENDBRANCH   5  18
BRANCH   3  22
ATOM     22  C   LIG d   1      -7.786  79.139 119.293  0.00  0.00     0.382 C 
ATOM     23  O   LIG d   1      -8.930  78.940 118.819  0.00  0.00    -0.241 OA
ATOM     24  O   LIG d   1      -7.651  79.305 120.520  0.00  0.00    -0.241 OA
ENDBRANCH   3  22
TORSDOF 7
ENDMDL
MODEL 7
REMARK VINA RESULT:      -4.9      6.248      9.743
REMARK  7 active torsions:
REMARK  status: ('A' for Active; 'I' for Inactive)
REMARK    1  A    between atoms: C_2  and  C_3 
REMARK    2  A    between atoms: C_3  and  O_6 
REMARK    3  A    between atoms: C_3  and  C_4 
REMARK    4  A    between atoms: C_7  and  O_6 
REMARK    5  A    between atoms: C_9  and  C_10 
REMARK    6  A    between atoms: N_15  and  C_14 
REMARK    7  A    between atoms: N_20  and  C_19 
REMARK       I    between atoms: C_22  and  N_20 
ROOT
ATOM      1  C   LIG d   1      -5.130  92.734 118.710  0.00  0.00     0.161 C 
ATOM      2  C   LIG d   1      -3.952  92.855 119.465  0.00  0.00     0.016 C 
ATOM      3  C   LIG d   1      -2.765  92.144 119.176  0.00  0.00     0.038 C 
ATOM      4  C   LIG d   1      -2.628  91.372 118.013  0.00  0.00     0.028 C 
ATOM      5  C   LIG d   1      -3.952  90.821 117.493  0.00  0.00    -0.047 C 
ATOM      6  C   LIG d   1      -4.966  91.981 117.373  0.00  0.00     0.091 C 
ENDROOT
BRANCH   1   7
ATOM      7  O   LIG d   1      -5.702  94.037 118.484  0.00  0.00    -0.368 OA
BRANCH   7   8
ATOM      8  C   LIG d   1      -6.825  94.395 119.327  0.00  0.00     0.119 C 
BRANCH   8   9
ATOM      9  C   LIG d   1      -8.061  94.533 118.418  0.00  0.00     0.028 C 
ATOM     10  C   LIG d   1      -8.726  95.914 118.538  0.00  0.00     0.006 C 
ENDBRANCH   8   9
BRANCH   8  11
ATOM     11  C   LIG d   1      -6.629  95.777 119.958  0.00  0.00     0.028 C 
ATOM     12  C   LIG d   1      -5.227  96.354 119.706  0.00  0.00     0.006 C 
ENDBRANCH   8  11
ENDBRANCH   7   8
ENDBRANCH   1   7
BRANCH   6  13
ATOM     13  N   LIG d   1      -6.313  91.515 116.950  0.00  0.00    -0.311 N 
ATOM     14  C   LIG d   1      -6.711  91.481 115.680  0.00  0.00     0.210 C 
ATOM     15  C   LIG d   1      -8.145  90.986 115.466  0.00  0.00     0.109 C 
ATOM     16  O   LIG d   1      -6.003  91.782 114.708  0.00  0.00    -0.276 OA
ATOM     17  H   LIG d   1      -6.941  91.223 117.673  0.00  0.00     0.149 HD
ENDBRANCH   6  13
BRANCH   5  18
ATOM     18  N   LIG d   1      -3.682  90.153 116.205  0.00  0.00     0.381 N 
ATOM     19  H   LIG d   1      -4.083  90.684 115.458  0.00  0.00    -0.090 HD
ATOM     20  H   LIG d   1      -4.111  89.245 116.213  0.00  0.00    -0.090 HD
ATOM     21  H   LIG d   1      -2.699  90.063 116.067  0.00  0.00    -0.090 HD
ENDBRANCH   5  18
BRANCH   3  22
ATOM     22  C   LIG d   1      -1.711  92.170 120.076  0.00  0.00     0.382 C 
ATOM     23  O   LIG d   1      -1.710  93.001 121.016  0.00  0.00    -0.241 OA
ATOM     24  O   LIG d   1      -0.740  91.403 119.935  0.00  0.00    -0.241 OA
ENDBRANCH   3  22
TORSDOF 7
ENDMDL
MODEL 8
REMARK VINA RESULT:      -4.8     29.731     31.762
REMARK  7 active torsions:
REMARK  status: ('A' for Active; 'I' for Inactive)
REMARK    1  A    between atoms: C_2  and  C_3 
REMARK    2  A    between atoms: C_3  and  O_6 
REMARK    3  A    between atoms: C_3  and  C_4 
REMARK    4  A    between atoms: C_7  and  O_6 
REMARK    5  A    between atoms: C_9  and  C_10 
REMARK    6  A    between atoms: N_15  and  C_14 
REMARK    7  A    between atoms: N_20  and  C_19 
REMARK       I    between atoms: C_22  and  N_20 
ROOT
ATOM      1  C   LIG d   1      -0.213  57.572 118.976  0.00  0.00     0.161 C 
ATOM      2  C   LIG d   1      -0.633  58.419 117.937  0.00  0.00     0.016 C 
ATOM      3  C   LIG d   1      -1.197  57.948 116.729  0.00  0.00     0.038 C 
ATOM      4  C   LIG d   1      -1.519  56.596 116.538  0.00  0.00     0.028 C 
ATOM      5  C   LIG d   1      -0.650  55.646 117.354  0.00  0.00    -0.047 C 
ATOM      6  C   LIG d   1      -0.658  56.102 118.831  0.00  0.00     0.091 C 
ENDROOT
BRANCH   1   7
ATOM      7  O   LIG d   1      -0.643  58.104 120.244  0.00  0.00    -0.368 OA
BRANCH   7   8
ATOM      8  C   LIG d   1       0.376  58.757 121.040  0.00  0.00     0.119 C 
BRANCH   8   9
ATOM      9  C   LIG d   1      -0.098  60.200 121.305  0.00  0.00     0.028 C 
ATOM     10  C   LIG d   1      -1.606  60.376 121.058  0.00  0.00     0.006 C 
ENDBRANCH   8   9
BRANCH   8  11
ATOM     11  C   LIG d   1       1.687  58.898 120.260  0.00  0.00     0.028 C 
ATOM     12  C   LIG d   1       2.910  59.063 121.176  0.00  0.00     0.006 C 
ENDBRANCH   8  11
ENDBRANCH   7   8
ENDBRANCH   1   7
BRANCH   6  13
ATOM     13  N   LIG d   1       0.235  55.275 119.685  0.00  0.00    -0.311 N 
ATOM     14  C   LIG d   1       1.555  55.215 119.522  0.00  0.00     0.210 C 
ATOM     15  C   LIG d   1       2.286  54.287 120.497  0.00  0.00     0.109 C 
ATOM     16  O   LIG d   1       2.194  55.867 118.682  0.00  0.00    -0.276 OA
ATOM     17  H   LIG d   1      -0.197  54.738 120.411  0.00  0.00     0.149 HD
ENDBRANCH   6  13
BRANCH   5  18
ATOM     18  N   LIG d   1      -1.182  54.283 117.167  0.00  0.00     0.381 N 
ATOM     19  H   LIG d   1      -0.471  53.690 116.788  0.00  0.00    -0.090 HD
ATOM     20  H   LIG d   1      -1.944  54.319 116.512  0.00  0.00    -0.090 HD
ATOM     21  H   LIG d   1      -1.500  53.918 118.038  0.00  0.00    -0.090 HD
ENDBRANCH   5  18
BRANCH   3  22
ATOM     22  C   LIG d   1      -1.407  58.830 115.679  0.00  0.00     0.382 C 
ATOM     23  O   LIG d   1      -0.483  59.064 114.862  0.00  0.00    -0.241 OA
ATOM     24  O   LIG d   1      -2.493  59.428 115.564  0.00  0.00    -0.241 OA
ENDBRANCH   3  22
TORSDOF 7
ENDMDL
MODEL 9
REMARK VINA RESULT:      -4.8     10.607     13.339
REMARK  7 active torsions:
REMARK  status: ('A' for Active; 'I' for Inactive)
REMARK    1  A    between atoms: C_2  and  C_3 
REMARK    2  A    between atoms: C_3  and  O_6 
REMARK    3  A    between atoms: C_3  and  C_4 
REMARK    4  A    between atoms: C_7  and  O_6 
REMARK    5  A    between atoms: C_9  and  C_10 
REMARK    6  A    between atoms: N_15  and  C_14 
REMARK    7  A    between atoms: N_20  and  C_19 
REMARK       I    between atoms: C_22  and  N_20 
ROOT
ATOM      1  C   LIG d   1      -2.345  76.347 114.570  0.00  0.00     0.161 C 
ATOM      2  C   LIG d   1      -1.881  77.656 114.362  0.00  0.00     0.016 C 
ATOM      3  C   LIG d   1      -2.453  78.792 114.980  0.00  0.00     0.038 C 
ATOM      4  C   LIG d   1      -3.437  78.679 115.973  0.00  0.00     0.028 C 
ATOM      5  C   LIG d   1      -4.283  77.416 115.846  0.00  0.00    -0.047 C 
ATOM      6  C   LIG d   1      -3.345  76.193 115.735  0.00  0.00     0.091 C 
ENDROOT
BRANCH   1   7
ATOM      7  O   LIG d   1      -1.227  75.455 114.749  0.00  0.00    -0.368 OA
BRANCH   7   8
ATOM      8  C   LIG d   1      -0.045  76.029 115.361  0.00  0.00     0.119 C 
BRANCH   8   9
ATOM      9  C   LIG d   1       1.177  75.269 114.811  0.00  0.00     0.028 C 
ATOM     10  C   LIG d   1       0.789  74.220 113.756  0.00  0.00     0.006 C 
ENDBRANCH   8   9
BRANCH   8  11
ATOM     11  C   LIG d   1      -0.027  75.786 116.873  0.00  0.00     0.028 C 
ATOM     12  C   LIG d   1      -0.516  74.380 117.257  0.00  0.00     0.006 C 
ENDBRANCH   8  11
ENDBRANCH   7   8
ENDBRANCH   1   7
BRANCH   6  13
ATOM     13  N   LIG d   1      -4.090  74.925 115.523  0.00  0.00    -0.311 N 
ATOM     14  C   LIG d   1      -4.835  74.683 114.446  0.00  0.00     0.210 C 
ATOM     15  C   LIG d   1      -5.535  73.320 114.435  0.00  0.00     0.109 C 
ATOM     16  O   LIG d   1      -4.956  75.454 113.482  0.00  0.00    -0.276 OA
ATOM     17  H   LIG d   1      -4.023  74.230 116.242  0.00  0.00     0.149 HD
ENDBRANCH   6  13
BRANCH   5  18
ATOM     18  N   LIG d   1      -5.174  77.357 117.020  0.00  0.00     0.381 N 
ATOM     19  H   LIG d   1      -5.905  78.034 116.925  0.00  0.00    -0.090 HD
ATOM     20  H   LIG d   1      -4.643  77.580 117.843  0.00  0.00    -0.090 HD
ATOM     21  H   LIG d   1      -5.566  76.445 117.106  0.00  0.00    -0.090 HD
ENDBRANCH   5  18
BRANCH   3  22
ATOM     22  C   LIG d   1      -2.067  80.061 114.576  0.00  0.00     0.382 C 
ATOM     23  O   LIG d   1      -2.907  80.837 114.060  0.00  0.00    -0.241 OA
ATOM     24  O   LIG d   1      -0.880  80.424 114.682  0.00  0.00    -0.241 OA
ENDBRANCH   3  22
TORSDOF 7
ENDMDL
