MODEL 1
REMARK VINA RESULT:      -5.6      0.000      0.000
REMARK  7 active torsions:
REMARK  status: ('A' for Active; 'I' for Inactive)
REMARK    1  A    between atoms: C_2  and  C_3 
REMARK    2  A    between atoms: C_3  and  O_6 
REMARK    3  A    between atoms: C_3  and  C_4 
REMARK    4  A    between atoms: C_7  and  O_6 
REMARK    5  A    between atoms: C_9  and  C_10 
REMARK    6  A    between atoms: N_15  and  C_14 
REMARK    7  A    between atoms: N_20  and  C_19 
REMARK       I    between atoms: C_22  and  N_20 
ROOT
ATOM      1  C   LIG d   1      -3.337  75.213 116.999  0.00  0.00     0.161 C 
ATOM      2  C   LIG d   1      -3.619  75.735 115.725  0.00  0.00     0.016 C 
ATOM      3  C   LIG d   1      -2.618  76.130 114.807  0.00  0.00     0.038 C 
ATOM      4  C   LIG d   1      -1.257  75.887 115.044  0.00  0.00     0.028 C 
ATOM      5  C   LIG d   1      -0.901  75.825 116.525  0.00  0.00    -0.047 C 
ATOM      6  C   LIG d   1      -1.858  74.837 117.231  0.00  0.00     0.091 C 
ENDROOT
BRANCH   1   7
ATOM      7  O   LIG d   1      -4.189  74.081 117.262  0.00  0.00    -0.368 OA
BRANCH   7   8
ATOM      8  C   LIG d   1      -5.559  74.195 116.805  0.00  0.00     0.119 C 
BRANCH   8   9
ATOM      9  C   LIG d   1      -6.443  74.433 118.045  0.00  0.00     0.028 C 
ATOM     10  C   LIG d   1      -7.722  75.219 117.712  0.00  0.00     0.006 C 
ENDBRANCH   8   9
BRANCH   8  11
ATOM     11  C   LIG d   1      -6.056  72.879 116.200  0.00  0.00     0.028 C 
ATOM     12  C   LIG d   1      -6.337  71.803 117.261  0.00  0.00     0.006 C 
ENDBRANCH   8  11
ENDBRANCH   7   8
ENDBRANCH   1   7
BRANCH   6  13
ATOM     13  N   LIG d   1      -1.634  74.781 118.699  0.00  0.00    -0.311 N 
ATOM     14  C   LIG d   1      -0.810  73.911 119.281  0.00  0.00     0.210 C 
ATOM     15  C   LIG d   1      -0.740  74.010 120.808  0.00  0.00     0.109 C 
ATOM     16  O   LIG d   1      -0.107  73.089 118.676  0.00  0.00    -0.276 OA
ATOM     17  H   LIG d   1      -2.141  75.434 119.263  0.00  0.00     0.149 HD
ENDBRANCH   6  13
BRANCH   5  18
ATOM     18  N   LIG d   1       0.516  75.430 116.627  0.00  0.00     0.381 N 
ATOM     19  H   LIG d   1       1.102  76.202 116.380  0.00  0.00    -0.090 HD
ATOM     20  H   LIG d   1       0.692  74.681 115.980  0.00  0.00    -0.090 HD
ATOM     21  H   LIG d   1       0.721  75.131 117.555  0.00  0.00    -0.090 HD
ENDBRANCH   5  18
BRANCH   3  22
ATOM     22  C   LIG d   1      -2.975  76.812 113.654  0.00  0.00     0.382 C 
ATOM     23  O   LIG d   1      -2.128  77.519 113.056  0.00  0.00    -0.241 OA
ATOM     24  O   LIG d   1      -4.145  76.766 113.228  0.00  0.00    -0.241 OA
ENDBRANCH   3  22
TORSDOF 7
ENDMDL
MODEL 2
REMARK VINA RESULT:      -5.6      3.713      6.382
REMARK  7 active torsions:
REMARK  status: ('A' for Active; 'I' for Inactive)
REMARK    1  A    between atoms: C_2  and  C_3 
REMARK    2  A    between atoms: C_3  and  O_6 
REMARK    3  A    between atoms: C_3  and  C_4 
REMARK    4  A    between atoms: C_7  and  O_6 
REMARK    5  A    between atoms: C_9  and  C_10 
REMARK    6  A    between atoms: N_15  and  C_14 
REMARK    7  A    between atoms: N_20  and  C_19 
REMARK       I    between atoms: C_22  and  N_20 
ROOT
ATOM      1  C   LIG d   1      -7.933  74.918 117.790  0.00  0.00     0.161 C 
ATOM      2  C   LIG d   1      -9.256  75.264 118.110  0.00  0.00     0.016 C 
ATOM      3  C   LIG d   1      -9.706  76.600 118.215  0.00  0.00     0.038 C 
ATOM      4  C   LIG d   1      -8.894  77.687 117.858  0.00  0.00     0.028 C 
ATOM      5  C   LIG d   1      -7.404  77.407 118.017  0.00  0.00    -0.047 C 
ATOM      6  C   LIG d   1      -7.061  76.087 117.288  0.00  0.00     0.091 C 
ENDROOT
BRANCH   1   7
ATOM      7  O   LIG d   1      -7.928  73.842 116.831  0.00  0.00    -0.368 OA
BRANCH   7   8
ATOM      8  C   LIG d   1      -8.013  72.502 117.376  0.00  0.00     0.119 C 
BRANCH   8   9
ATOM      9  C   LIG d   1      -6.703  71.773 117.019  0.00  0.00     0.028 C 
ATOM     10  C   LIG d   1      -6.204  72.121 115.607  0.00  0.00     0.006 C 
ENDBRANCH   8   9
BRANCH   8  11
ATOM     11  C   LIG d   1      -9.124  71.694 116.698  0.00  0.00     0.028 C 
ATOM     12  C   LIG d   1      -9.204  70.246 117.207  0.00  0.00     0.006 C 
ENDBRANCH   8  11
ENDBRANCH   7   8
ENDBRANCH   1   7
BRANCH   6  13
ATOM     13  N   LIG d   1      -5.638  75.696 117.465  0.00  0.00    -0.311 N 
ATOM     14  C   LIG d   1      -4.813  75.452 116.448  0.00  0.00     0.210 C 
ATOM     15  C   LIG d   1      -3.393  75.043 116.851  0.00  0.00     0.109 C 
ATOM     16  O   LIG d   1      -5.114  75.566 115.250  0.00  0.00    -0.276 OA
ATOM     17  H   LIG d   1      -5.302  75.610 118.404  0.00  0.00     0.149 HD
ENDBRANCH   6  13
BRANCH   5  18
ATOM     18  N   LIG d   1      -6.672  78.570 117.481  0.00  0.00     0.381 N 
ATOM     19  H   LIG d   1      -5.690  78.451 117.629  0.00  0.00    -0.090 HD
ATOM     20  H   LIG d   1      -6.967  79.395 117.973  0.00  0.00    -0.090 HD
ATOM     21  H   LIG d   1      -6.859  78.672 116.507  0.00  0.00    -0.090 HD
ENDBRANCH   5  18
BRANCH   3  22
ATOM     22  C   LIG d   1     -10.971  76.861 118.721  0.00  0.00     0.382 C 
ATOM     23  O   LIG d   1     -11.959  76.903 117.949  0.00  0.00    -0.241 OA
ATOM     24  O   LIG d   1     -11.129  77.100 119.934  0.00  0.00    -0.241 OA
ENDBRANCH   3  22
TORSDOF 7
ENDMDL
MODEL 3
REMARK VINA RESULT:      -5.5     15.361     16.943
REMARK  7 active torsions:
REMARK  status: ('A' for Active; 'I' for Inactive)
REMARK    1  A    between atoms: C_2  and  C_3 
REMARK    2  A    between atoms: C_3  and  O_6 
REMARK    3  A    between atoms: C_3  and  C_4 
REMARK    4  A    between atoms: C_7  and  O_6 
REMARK    5  A    between atoms: C_9  and  C_10 
REMARK    6  A    between atoms: N_15  and  C_14 
REMARK    7  A    between atoms: N_20  and  C_19 
REMARK       I    between atoms: C_22  and  N_20 
ROOT
ATOM      1  C   LIG d   1      -4.330  90.765 117.674  0.00  0.00     0.161 C 
ATOM      2  C   LIG d   1      -5.256  90.087 116.862  0.00  0.00     0.016 C 
ATOM      3  C   LIG d   1      -6.498  90.637 116.473  0.00  0.00     0.038 C 
ATOM      4  C   LIG d   1      -6.837  91.971 116.745  0.00  0.00     0.028 C 
ATOM      5  C   LIG d   1      -6.153  92.527 117.990  0.00  0.00    -0.047 C 
ATOM      6  C   LIG d   1      -4.634  92.262 117.889  0.00  0.00     0.091 C 
ENDROOT
BRANCH   1   7
ATOM      7  O   LIG d   1      -3.000  90.593 117.145  0.00  0.00    -0.368 OA
BRANCH   7   8
ATOM      8  C   LIG d   1      -2.036  89.978 118.034  0.00  0.00     0.119 C 
BRANCH   8   9
ATOM      9  C   LIG d   1      -0.632  90.291 117.482  0.00  0.00     0.028 C 
ATOM     10  C   LIG d   1       0.326  90.803 118.572  0.00  0.00     0.006 C 
ENDBRANCH   8   9
BRANCH   8  11
ATOM     11  C   LIG d   1      -2.150  88.451 118.009  0.00  0.00     0.028 C 
ATOM     12  C   LIG d   1      -2.609  87.865 119.353  0.00  0.00     0.006 C 
ENDBRANCH   8  11
ENDBRANCH   7   8
ENDBRANCH   1   7
BRANCH   6  13
ATOM     13  N   LIG d   1      -3.900  92.700 119.104  0.00  0.00    -0.311 N 
ATOM     14  C   LIG d   1      -2.725  93.327 119.066  0.00  0.00     0.210 C 
ATOM     15  C   LIG d   1      -2.131  93.672 120.435  0.00  0.00     0.109 C 
ATOM     16  O   LIG d   1      -2.134  93.659 118.027  0.00  0.00    -0.276 OA
ATOM     17  H   LIG d   1      -4.322  92.498 119.990  0.00  0.00     0.149 HD
ENDBRANCH   6  13
BRANCH   5  18
ATOM     18  N   LIG d   1      -6.485  93.962 118.078  0.00  0.00     0.381 N 
ATOM     19  H   LIG d   1      -6.541  94.353 117.159  0.00  0.00    -0.090 HD
ATOM     20  H   LIG d   1      -5.754  94.435 118.578  0.00  0.00    -0.090 HD
ATOM     21  H   LIG d   1      -7.353  94.082 118.551  0.00  0.00    -0.090 HD
ENDBRANCH   5  18
BRANCH   3  22
ATOM     22  C   LIG d   1      -7.435  89.837 115.836  0.00  0.00     0.382 C 
ATOM     23  O   LIG d   1      -8.170  89.076 116.509  0.00  0.00    -0.241 OA
ATOM     24  O   LIG d   1      -7.523  89.834 114.593  0.00  0.00    -0.241 OA
ENDBRANCH   3  22
TORSDOF 7
ENDMDL
MODEL 4
REMARK VINA RESULT:      -5.3     16.096     17.591
REMARK  7 active torsions:
REMARK  status: ('A' for Active; 'I' for Inactive)
REMARK    1  A    between atoms: C_2  and  C_3 
REMARK    2  A    between atoms: C_3  and  O_6 
REMARK    3  A    between atoms: C_3  and  C_4 
REMARK    4  A    between atoms: C_7  and  O_6 
REMARK    5  A    between atoms: C_9  and  C_10 
REMARK    6  A    between atoms: N_15  and  C_14 
REMARK    7  A    between atoms: N_20  and  C_19 
REMARK       I    between atoms: C_22  and  N_20 
ROOT
ATOM      1  C   LIG d   1      -3.973  92.013 118.284  0.00  0.00     0.161 C 
ATOM      2  C   LIG d   1      -5.280  92.525 118.353  0.00  0.00     0.016 C 
ATOM      3  C   LIG d   1      -6.345  92.052 117.553  0.00  0.00     0.038 C 
ATOM      4  C   LIG d   1      -6.209  90.923 116.730  0.00  0.00     0.028 C 
ATOM      5  C   LIG d   1      -4.780  90.691 116.251  0.00  0.00    -0.047 C 
ATOM      6  C   LIG d   1      -3.832  90.708 117.473  0.00  0.00     0.091 C 
ENDROOT
BRANCH   1   7
ATOM      7  O   LIG d   1      -3.447  91.836 119.614  0.00  0.00    -0.368 OA
BRANCH   7   8
ATOM      8  C   LIG d   1      -2.347  92.703 119.985  0.00  0.00     0.119 C 
BRANCH   8   9
ATOM      9  C   LIG d   1      -2.853  93.642 121.098  0.00  0.00     0.028 C 
ATOM     10  C   LIG d   1      -3.397  94.969 120.543  0.00  0.00     0.006 C 
ENDBRANCH   8   9
BRANCH   8  11
ATOM     11  C   LIG d   1      -1.949  93.624 118.828  0.00  0.00     0.028 C 
ATOM     12  C   LIG d   1      -0.472  93.477 118.430  0.00  0.00     0.006 C 
ENDBRANCH   8  11
ENDBRANCH   7   8
ENDBRANCH   1   7
BRANCH   6  13
ATOM     13  N   LIG d   1      -2.404  90.572 117.084  0.00  0.00    -0.311 N 
ATOM     14  C   LIG d   1      -1.539  89.794 117.732  0.00  0.00     0.210 C 
ATOM     15  C   LIG d   1      -0.111  89.814 117.178  0.00  0.00     0.109 C 
ATOM     16  O   LIG d   1      -1.827  89.063 118.692  0.00  0.00    -0.276 OA
ATOM     17  H   LIG d   1      -2.093  91.106 116.296  0.00  0.00     0.149 HD
ENDBRANCH   6  13
BRANCH   5  18
ATOM     18  N   LIG d   1      -4.757  89.410 115.520  0.00  0.00     0.381 N 
ATOM     19  H   LIG d   1      -5.397  88.768 115.943  0.00  0.00    -0.090 HD
ATOM     20  H   LIG d   1      -3.833  89.019 115.577  0.00  0.00    -0.090 HD
ATOM     21  H   LIG d   1      -5.005  89.558 114.566  0.00  0.00    -0.090 HD
ENDBRANCH   5  18
BRANCH   3  22
ATOM     22  C   LIG d   1      -7.552  92.734 117.541  0.00  0.00     0.382 C 
ATOM     23  O   LIG d   1      -8.081  93.091 118.621  0.00  0.00    -0.241 OA
ATOM     24  O   LIG d   1      -8.140  92.958 116.466  0.00  0.00    -0.241 OA
ENDBRANCH   3  22
TORSDOF 7
ENDMDL
MODEL 5
REMARK VINA RESULT:      -5.2      2.280      5.632
REMARK  7 active torsions:
REMARK  status: ('A' for Active; 'I' for Inactive)
REMARK    1  A    between atoms: C_2  and  C_3 
REMARK    2  A    between atoms: C_3  and  O_6 
REMARK    3  A    between atoms: C_3  and  C_4 
REMARK    4  A    between atoms: C_7  and  O_6 
REMARK    5  A    between atoms: C_9  and  C_10 
REMARK    6  A    between atoms: N_15  and  C_14 
REMARK    7  A    between atoms: N_20  and  C_19 
REMARK       I    between atoms: C_22  and  N_20 
ROOT
ATOM      1  C   LIG d   1      -3.779  76.115 116.959  0.00  0.00     0.161 C 
ATOM      2  C   LIG d   1      -4.649  75.163 117.517  0.00  0.00     0.016 C 
ATOM      3  C   LIG d   1      -5.470  74.311 116.742  0.00  0.00     0.038 C 
ATOM      4  C   LIG d   1      -5.363  74.248 115.345  0.00  0.00     0.028 C 
ATOM      5  C   LIG d   1      -4.863  75.544 114.716  0.00  0.00    -0.047 C 
ATOM      6  C   LIG d   1      -3.567  75.983 115.436  0.00  0.00     0.091 C 
ENDROOT
BRANCH   1   7
ATOM      7  O   LIG d   1      -2.512  76.079 117.645  0.00  0.00    -0.368 OA
BRANCH   7   8
ATOM      8  C   LIG d   1      -1.833  74.800 117.666  0.00  0.00     0.119 C 
BRANCH   8   9
ATOM      9  C   LIG d   1      -1.323  74.569 119.101  0.00  0.00     0.028 C 
ATOM     10  C   LIG d   1      -0.242  73.478 119.172  0.00  0.00     0.006 C 
ENDBRANCH   8   9
BRANCH   8  11
ATOM     11  C   LIG d   1      -0.578  74.821 116.788  0.00  0.00     0.028 C 
ATOM     12  C   LIG d   1       0.045  76.221 116.672  0.00  0.00     0.006 C 
ENDBRANCH   8  11
ENDBRANCH   7   8
ENDBRANCH   1   7
BRANCH   6  13
ATOM     13  N   LIG d   1      -3.057  77.287 114.939  0.00  0.00    -0.311 N 
ATOM     14  C   LIG d   1      -2.133  77.398 113.985  0.00  0.00     0.210 C 
ATOM     15  C   LIG d   1      -1.734  78.835 113.635  0.00  0.00     0.109 C 
ATOM     16  O   LIG d   1      -1.631  76.443 113.374  0.00  0.00    -0.276 OA
ATOM     17  H   LIG d   1      -3.434  78.115 115.358  0.00  0.00     0.149 HD
ENDBRANCH   6  13
BRANCH   5  18
ATOM     18  N   LIG d   1      -4.668  75.295 113.276  0.00  0.00     0.381 N 
ATOM     19  H   LIG d   1      -4.596  74.311 113.109  0.00  0.00    -0.090 HD
ATOM     20  H   LIG d   1      -3.810  75.727 112.984  0.00  0.00    -0.090 HD
ATOM     21  H   LIG d   1      -5.431  75.672 112.758  0.00  0.00    -0.090 HD
ENDBRANCH   5  18
BRANCH   3  22
ATOM     22  C   LIG d   1      -6.438  73.538 117.365  0.00  0.00     0.382 C 
ATOM     23  O   LIG d   1      -7.496  74.072 117.778  0.00  0.00    -0.241 OA
ATOM     24  O   LIG d   1      -6.249  72.323 117.558  0.00  0.00    -0.241 OA
ENDBRANCH   3  22
TORSDOF 7
ENDMDL
MODEL 6
REMARK VINA RESULT:      -5.1      3.133      5.991
REMARK  7 active torsions:
REMARK  status: ('A' for Active; 'I' for Inactive)
REMARK    1  A    between atoms: C_2  and  C_3 
REMARK    2  A    between atoms: C_3  and  O_6 
REMARK    3  A    between atoms: C_3  and  C_4 
REMARK    4  A    between atoms: C_7  and  O_6 
REMARK    5  A    between atoms: C_9  and  C_10 
REMARK    6  A    between atoms: N_15  and  C_14 
REMARK    7  A    between atoms: N_20  and  C_19 
REMARK       I    between atoms: C_22  and  N_20 
ROOT
ATOM      1  C   LIG d   1      -4.488  75.779 117.311  0.00  0.00     0.161 C 
ATOM      2  C   LIG d   1      -4.776  74.449 116.965  0.00  0.00     0.016 C 
ATOM      3  C   LIG d   1      -6.080  73.903 116.988  0.00  0.00     0.038 C 
ATOM      4  C   LIG d   1      -7.213  74.700 117.214  0.00  0.00     0.028 C 
ATOM      5  C   LIG d   1      -6.926  75.934 118.062  0.00  0.00    -0.047 C 
ATOM      6  C   LIG d   1      -5.724  76.692 117.453  0.00  0.00     0.091 C 
ENDROOT
BRANCH   1   7
ATOM      7  O   LIG d   1      -3.557  76.340 116.364  0.00  0.00    -0.368 OA
BRANCH   7   8
ATOM      8  C   LIG d   1      -3.165  75.477 115.269  0.00  0.00     0.119 C 
BRANCH   8   9
ATOM      9  C   LIG d   1      -1.627  75.506 115.185  0.00  0.00     0.028 C 
ATOM     10  C   LIG d   1      -0.959  74.961 116.458  0.00  0.00     0.006 C 
ENDBRANCH   8   9
BRANCH   8  11
ATOM     11  C   LIG d   1      -3.655  76.026 113.925  0.00  0.00     0.028 C 
ATOM     12  C   LIG d   1      -4.726  75.137 113.274  0.00  0.00     0.006 C 
ENDBRANCH   8  11
ENDBRANCH   7   8
ENDBRANCH   1   7
BRANCH   6  13
ATOM     13  N   LIG d   1      -5.323  77.868 118.270  0.00  0.00    -0.311 N 
ATOM     14  C   LIG d   1      -5.712  79.113 118.002  0.00  0.00     0.210 C 
ATOM     15  C   LIG d   1      -5.168  80.180 118.958  0.00  0.00     0.109 C 
ATOM     16  O   LIG d   1      -6.481  79.432 117.082  0.00  0.00    -0.276 OA
ATOM     17  H   LIG d   1      -4.725  77.696 119.054  0.00  0.00     0.149 HD
ENDBRANCH   6  13
BRANCH   5  18
ATOM     18  N   LIG d   1      -8.159  76.743 118.103  0.00  0.00     0.381 N 
ATOM     19  H   LIG d   1      -8.868  76.253 118.611  0.00  0.00    -0.090 HD
ATOM     20  H   LIG d   1      -8.485  76.886 117.164  0.00  0.00    -0.090 HD
ATOM     21  H   LIG d   1      -7.976  77.621 118.537  0.00  0.00    -0.090 HD
ENDBRANCH   5  18
BRANCH   3  22
ATOM     22  C   LIG d   1      -6.257  72.538 116.821  0.00  0.00     0.382 C 
ATOM     23  O   LIG d   1      -6.307  71.785 117.823  0.00  0.00    -0.241 OA
ATOM     24  O   LIG d   1      -6.324  72.045 115.679  0.00  0.00    -0.241 OA
ENDBRANCH   3  22
TORSDOF 7
ENDMDL
MODEL 7
REMARK VINA RESULT:      -5.0      3.924      5.952
REMARK  7 active torsions:
REMARK  status: ('A' for Active; 'I' for Inactive)
REMARK    1  A    between atoms: C_2  and  C_3 
REMARK    2  A    between atoms: C_3  and  O_6 
REMARK    3  A    between atoms: C_3  and  C_4 
REMARK    4  A    between atoms: C_7  and  O_6 
REMARK    5  A    between atoms: C_9  and  C_10 
REMARK    6  A    between atoms: N_15  and  C_14 
REMARK    7  A    between atoms: N_20  and  C_19 
REMARK       I    between atoms: C_22  and  N_20 
ROOT
ATOM      1  C   LIG d   1      -7.495  75.791 117.538  0.00  0.00     0.161 C 
ATOM      2  C   LIG d   1      -8.141  74.547 117.453  0.00  0.00     0.016 C 
ATOM      3  C   LIG d   1      -7.450  73.315 117.381  0.00  0.00     0.038 C 
ATOM      4  C   LIG d   1      -6.059  73.235 117.541  0.00  0.00     0.028 C 
ATOM      5  C   LIG d   1      -5.326  74.505 117.123  0.00  0.00    -0.047 C 
ATOM      6  C   LIG d   1      -5.981  75.716 117.826  0.00  0.00     0.091 C 
ENDROOT
BRANCH   1   7
ATOM      7  O   LIG d   1      -8.152  76.617 118.520  0.00  0.00    -0.368 OA
BRANCH   7   8
ATOM      8  C   LIG d   1      -8.736  77.849 118.030  0.00  0.00     0.119 C 
BRANCH   8   9
ATOM      9  C   LIG d   1      -7.979  79.016 118.694  0.00  0.00     0.028 C 
ATOM     10  C   LIG d   1      -7.450  80.031 117.667  0.00  0.00     0.006 C 
ENDBRANCH   8   9
BRANCH   8  11
ATOM     11  C   LIG d   1     -10.190  77.996 118.487  0.00  0.00     0.028 C 
ATOM     12  C   LIG d   1     -10.944  76.657 118.518  0.00  0.00     0.006 C 
ENDBRANCH   8  11
ENDBRANCH   7   8
ENDBRANCH   1   7
BRANCH   6  13
ATOM     13  N   LIG d   1      -5.379  77.009 117.407  0.00  0.00    -0.311 N 
ATOM     14  C   LIG d   1      -4.382  77.600 118.064  0.00  0.00     0.210 C 
ATOM     15  C   LIG d   1      -3.923  78.937 117.474  0.00  0.00     0.109 C 
ATOM     16  O   LIG d   1      -3.814  77.129 119.060  0.00  0.00    -0.276 OA
ATOM     17  H   LIG d   1      -5.759  77.446 116.590  0.00  0.00     0.149 HD
ENDBRANCH   6  13
BRANCH   5  18
ATOM     18  N   LIG d   1      -3.903  74.335 117.471  0.00  0.00     0.381 N 
ATOM     19  H   LIG d   1      -3.651  73.369 117.404  0.00  0.00    -0.090 HD
ATOM     20  H   LIG d   1      -3.763  74.632 118.421  0.00  0.00    -0.090 HD
ATOM     21  H   LIG d   1      -3.335  74.877 116.859  0.00  0.00    -0.090 HD
ENDBRANCH   5  18
BRANCH   3  22
ATOM     22  C   LIG d   1      -8.149  72.150 117.105  0.00  0.00     0.382 C 
ATOM     23  O   LIG d   1      -9.378  72.200 116.858  0.00  0.00    -0.241 OA
ATOM     24  O   LIG d   1      -7.576  71.045 117.145  0.00  0.00    -0.241 OA
ENDBRANCH   3  22
TORSDOF 7
ENDMDL
MODEL 8
REMARK VINA RESULT:      -5.0      3.499      5.858
REMARK  7 active torsions:
REMARK  status: ('A' for Active; 'I' for Inactive)
REMARK    1  A    between atoms: C_2  and  C_3 
REMARK    2  A    between atoms: C_3  and  O_6 
REMARK    3  A    between atoms: C_3  and  C_4 
REMARK    4  A    between atoms: C_7  and  O_6 
REMARK    5  A    between atoms: C_9  and  C_10 
REMARK    6  A    between atoms: N_15  and  C_14 
REMARK    7  A    between atoms: N_20  and  C_19 
REMARK       I    between atoms: C_22  and  N_20 
ROOT
ATOM      1  C   LIG d   1      -6.399  76.751 116.448  0.00  0.00     0.161 C 
ATOM      2  C   LIG d   1      -7.695  76.549 116.951  0.00  0.00     0.016 C 
ATOM      3  C   LIG d   1      -8.126  75.332 117.526  0.00  0.00     0.038 C 
ATOM      4  C   LIG d   1      -7.238  74.275 117.777  0.00  0.00     0.028 C 
ATOM      5  C   LIG d   1      -6.044  74.249 116.829  0.00  0.00    -0.047 C 
ATOM      6  C   LIG d   1      -5.384  75.647 116.814  0.00  0.00     0.091 C 
ENDROOT
BRANCH   1   7
ATOM      7  O   LIG d   1      -5.908  78.040 116.865  0.00  0.00    -0.368 OA
BRANCH   7   8
ATOM      8  C   LIG d   1      -6.623  78.672 117.956  0.00  0.00     0.119 C 
BRANCH   8   9
ATOM      9  C   LIG d   1      -6.731  80.174 117.630  0.00  0.00     0.028 C 
ATOM     10  C   LIG d   1      -8.177  80.691 117.720  0.00  0.00     0.006 C 
ENDBRANCH   8   9
BRANCH   8  11
ATOM     11  C   LIG d   1      -5.826  78.597 119.262  0.00  0.00     0.028 C 
ATOM     12  C   LIG d   1      -6.447  77.631 120.284  0.00  0.00     0.006 C 
ENDBRANCH   8  11
ENDBRANCH   7   8
ENDBRANCH   1   7
BRANCH   6  13
ATOM     13  N   LIG d   1      -4.259  75.733 115.847  0.00  0.00    -0.311 N 
ATOM     14  C   LIG d   1      -2.990  75.494 116.176  0.00  0.00     0.210 C 
ATOM     15  C   LIG d   1      -1.984  75.658 115.033  0.00  0.00     0.109 C 
ATOM     16  O   LIG d   1      -2.607  75.131 117.299  0.00  0.00    -0.276 OA
ATOM     17  H   LIG d   1      -4.484  75.991 114.906  0.00  0.00     0.149 HD
ENDBRANCH   6  13
BRANCH   5  18
ATOM     18  N   LIG d   1      -5.132  73.185 117.289  0.00  0.00     0.381 N 
ATOM     19  H   LIG d   1      -5.628  72.546 117.878  0.00  0.00    -0.090 HD
ATOM     20  H   LIG d   1      -4.392  73.600 117.827  0.00  0.00    -0.090 HD
ATOM     21  H   LIG d   1      -4.752  72.700 116.506  0.00  0.00    -0.090 HD
ENDBRANCH   5  18
BRANCH   3  22
ATOM     22  C   LIG d   1      -9.468  75.148 117.821  0.00  0.00     0.382 C 
ATOM     23  O   LIG d   1      -9.942  73.988 117.888  0.00  0.00    -0.241 OA
ATOM     24  O   LIG d   1     -10.221  76.128 117.976  0.00  0.00    -0.241 OA
ENDBRANCH   3  22
TORSDOF 7
ENDMDL
MODEL 9
REMARK VINA RESULT:      -4.8      4.876      7.880
REMARK  7 active torsions:
REMARK  status: ('A' for Active; 'I' for Inactive)
REMARK    1  A    between atoms: C_2  and  C_3 
REMARK    2  A    between atoms: C_3  and  O_6 
REMARK    3  A    between atoms: C_3  and  C_4 
REMARK    4  A    between atoms: C_7  and  O_6 
REMARK    5  A    between atoms: C_9  and  C_10 
REMARK    6  A    between atoms: N_15  and  C_14 
REMARK    7  A    between atoms: N_20  and  C_19 
REMARK       I    between atoms: C_22  and  N_20 
ROOT
ATOM      1  C   LIG d   1      -6.894  77.933 117.855  0.00  0.00     0.161 C 
ATOM      2  C   LIG d   1      -7.160  76.572 117.631  0.00  0.00     0.016 C 
ATOM      3  C   LIG d   1      -8.452  76.006 117.725  0.00  0.00     0.038 C 
ATOM      4  C   LIG d   1      -9.597  76.796 117.902  0.00  0.00     0.028 C 
ATOM      5  C   LIG d   1      -9.322  78.105 118.635  0.00  0.00    -0.047 C 
ATOM      6  C   LIG d   1      -8.146  78.831 117.940  0.00  0.00     0.091 C 
ENDROOT
BRANCH   1   7
ATOM      7  O   LIG d   1      -5.991  78.427 116.846  0.00  0.00    -0.368 OA
BRANCH   7   8
ATOM      8  C   LIG d   1      -4.653  78.753 117.293  0.00  0.00     0.119 C 
BRANCH   8   9
ATOM      9  C   LIG d   1      -3.717  77.627 116.813  0.00  0.00     0.028 C 
ATOM     10  C   LIG d   1      -3.326  76.665 117.947  0.00  0.00     0.006 C 
ENDBRANCH   8   9
BRANCH   8  11
ATOM     11  C   LIG d   1      -4.556  78.736 118.822  0.00  0.00     0.028 C 
ATOM     12  C   LIG d   1      -4.189  80.107 119.411  0.00  0.00     0.006 C 
ENDBRANCH   8  11
ENDBRANCH   7   8
ENDBRANCH   1   7
BRANCH   6  13
ATOM     13  N   LIG d   1      -7.757  80.081 118.644  0.00  0.00    -0.311 N 
ATOM     14  C   LIG d   1      -7.637  81.259 118.034  0.00  0.00     0.210 C 
ATOM     15  C   LIG d   1      -7.205  82.415 118.941  0.00  0.00     0.109 C 
ATOM     16  O   LIG d   1      -7.879  81.462 116.835  0.00  0.00    -0.276 OA
ATOM     17  H   LIG d   1      -7.572  80.013 119.626  0.00  0.00     0.149 HD
ENDBRANCH   6  13
BRANCH   5  18
ATOM     18  N   LIG d   1     -10.570  78.891 118.629  0.00  0.00     0.381 N 
ATOM     19  H   LIG d   1     -10.387  79.821 118.947  0.00  0.00    -0.090 HD
ATOM     20  H   LIG d   1     -11.225  78.465 119.261  0.00  0.00    -0.090 HD
ATOM     21  H   LIG d   1     -10.953  78.915 117.709  0.00  0.00    -0.090 HD
ENDBRANCH   5  18
BRANCH   3  22
ATOM     22  C   LIG d   1      -8.604  74.628 117.680  0.00  0.00     0.382 C 
ATOM     23  O   LIG d   1      -9.746  74.120 117.777  0.00  0.00    -0.241 OA
ATOM     24  O   LIG d   1      -7.608  73.886 117.589  0.00  0.00    -0.241 OA
ENDBRANCH   3  22
TORSDOF 7
ENDMDL
