MODEL 1
REMARK VINA RESULT:      -6.0      0.000      0.000
REMARK  7 active torsions:
REMARK  status: ('A' for Active; 'I' for Inactive)
REMARK    1  A    between atoms: C_2  and  C_3 
REMARK    2  A    between atoms: C_3  and  O_6 
REMARK    3  A    between atoms: C_3  and  C_4 
REMARK    4  A    between atoms: C_7  and  O_6 
REMARK    5  A    between atoms: C_9  and  C_10 
REMARK    6  A    between atoms: N_15  and  C_14 
REMARK    7  A    between atoms: N_20  and  C_19 
REMARK       I    between atoms: C_22  and  N_20 
ROOT
ATOM      1  C   LIG d   1      -8.050  75.203 117.554  0.00  0.00     0.161 C 
ATOM      2  C   LIG d   1      -9.170  75.848 118.105  0.00  0.00     0.016 C 
ATOM      3  C   LIG d   1      -9.251  77.249 118.283  0.00  0.00     0.038 C 
ATOM      4  C   LIG d   1      -8.272  78.119 117.780  0.00  0.00     0.028 C 
ATOM      5  C   LIG d   1      -6.893  77.479 117.669  0.00  0.00    -0.047 C 
ATOM      6  C   LIG d   1      -7.019  76.145 116.898  0.00  0.00     0.091 C 
ENDROOT
BRANCH   1   7
ATOM      7  O   LIG d   1      -8.478  74.197 116.615  0.00  0.00    -0.368 OA
BRANCH   7   8
ATOM      8  C   LIG d   1      -8.558  72.843 117.123  0.00  0.00     0.119 C 
BRANCH   8   9
ATOM      9  C   LIG d   1      -7.158  72.214 116.987  0.00  0.00     0.028 C 
ATOM     10  C   LIG d   1      -6.698  72.118 115.522  0.00  0.00     0.006 C 
ENDBRANCH   8   9
BRANCH   8  11
ATOM     11  C   LIG d   1      -9.478  71.976 116.258  0.00  0.00     0.028 C 
ATOM     12  C   LIG d   1      -9.722  70.583 116.859  0.00  0.00     0.006 C 
ENDBRANCH   8  11
ENDBRANCH   7   8
ENDBRANCH   1   7
BRANCH   6  13
ATOM     13  N   LIG d   1      -5.728  75.413 116.817  0.00  0.00    -0.311 N 
ATOM     14  C   LIG d   1      -4.889  75.516 115.788  0.00  0.00     0.210 C 
ATOM     15  C   LIG d   1      -3.624  74.660 115.896  0.00  0.00     0.109 C 
ATOM     16  O   LIG d   1      -5.058  76.261 114.810  0.00  0.00    -0.276 OA
ATOM     17  H   LIG d   1      -5.497  74.810 117.582  0.00  0.00     0.149 HD
ENDBRANCH   6  13
BRANCH   5  18
ATOM     18  N   LIG d   1      -6.003  78.449 117.005  0.00  0.00     0.381 N 
ATOM     19  H   LIG d   1      -5.987  78.275 116.020  0.00  0.00    -0.090 HD
ATOM     20  H   LIG d   1      -5.071  78.333 117.360  0.00  0.00    -0.090 HD
ATOM     21  H   LIG d   1      -6.320  79.378 117.180  0.00  0.00    -0.090 HD
ENDBRANCH   5  18
BRANCH   3  22
ATOM     22  C   LIG d   1     -10.303  77.789 119.007  0.00  0.00     0.382 C 
ATOM     23  O   LIG d   1     -11.475  77.389 118.803  0.00  0.00    -0.241 OA
ATOM     24  O   LIG d   1     -10.101  78.702 119.830  0.00  0.00    -0.241 OA
ENDBRANCH   3  22
TORSDOF 7
ENDMDL
MODEL 2
REMARK VINA RESULT:      -5.6      2.270      4.933
REMARK  7 active torsions:
REMARK  status: ('A' for Active; 'I' for Inactive)
REMARK    1  A    between atoms: C_2  and  C_3 
REMARK    2  A    between atoms: C_3  and  O_6 
REMARK    3  A    between atoms: C_3  and  C_4 
REMARK    4  A    between atoms: C_7  and  O_6 
REMARK    5  A    between atoms: C_9  and  C_10 
REMARK    6  A    between atoms: N_15  and  C_14 
REMARK    7  A    between atoms: N_20  and  C_19 
REMARK       I    between atoms: C_22  and  N_20 
ROOT
ATOM      1  C   LIG d   1      -6.437  74.811 117.751  0.00  0.00     0.161 C 
ATOM      2  C   LIG d   1      -6.828  73.570 117.221  0.00  0.00     0.016 C 
ATOM      3  C   LIG d   1      -8.166  73.252 116.891  0.00  0.00     0.038 C 
ATOM      4  C   LIG d   1      -9.187  74.214 116.928  0.00  0.00     0.028 C 
ATOM      5  C   LIG d   1      -8.932  75.330 117.934  0.00  0.00    -0.047 C 
ATOM      6  C   LIG d   1      -7.519  75.909 117.694  0.00  0.00     0.091 C 
ENDROOT
BRANCH   1   7
ATOM      7  O   LIG d   1      -5.231  75.261 117.102  0.00  0.00    -0.368 OA
BRANCH   7   8
ATOM      8  C   LIG d   1      -4.702  74.394 116.069  0.00  0.00     0.119 C 
BRANCH   8   9
ATOM      9  C   LIG d   1      -3.229  74.106 116.416  0.00  0.00     0.028 C 
ATOM     10  C   LIG d   1      -2.583  75.243 117.225  0.00  0.00     0.006 C 
ENDBRANCH   8   9
BRANCH   8  11
ATOM     11  C   LIG d   1      -4.668  75.103 114.711  0.00  0.00     0.028 C 
ATOM     12  C   LIG d   1      -6.067  75.483 114.202  0.00  0.00     0.006 C 
ENDBRANCH   8  11
ENDBRANCH   7   8
ENDBRANCH   1   7
BRANCH   6  13
ATOM     13  N   LIG d   1      -7.156  76.951 118.690  0.00  0.00    -0.311 N 
ATOM     14  C   LIG d   1      -6.880  78.212 118.365  0.00  0.00     0.210 C 
ATOM     15  C   LIG d   1      -6.510  79.118 119.543  0.00  0.00     0.109 C 
ATOM     16  O   LIG d   1      -6.937  78.675 117.216  0.00  0.00    -0.276 OA
ATOM     17  H   LIG d   1      -7.116  76.669 119.650  0.00  0.00     0.149 HD
ENDBRANCH   6  13
BRANCH   5  18
ATOM     18  N   LIG d   1     -10.003  76.332 117.770  0.00  0.00     0.381 N 
ATOM     19  H   LIG d   1      -9.652  77.242 117.991  0.00  0.00    -0.090 HD
ATOM     20  H   LIG d   1     -10.749  76.118 118.409  0.00  0.00    -0.090 HD
ATOM     21  H   LIG d   1     -10.343  76.317 116.834  0.00  0.00    -0.090 HD
ENDBRANCH   5  18
BRANCH   3  22
ATOM     22  C   LIG d   1      -8.500  71.949 116.557  0.00  0.00     0.382 C 
ATOM     23  O   LIG d   1      -7.840  71.337 115.683  0.00  0.00    -0.241 OA
ATOM     24  O   LIG d   1      -9.481  71.393 117.086  0.00  0.00    -0.241 OA
ENDBRANCH   3  22
TORSDOF 7
ENDMDL
MODEL 3
REMARK VINA RESULT:      -5.4      2.008      5.308
REMARK  7 active torsions:
REMARK  status: ('A' for Active; 'I' for Inactive)
REMARK    1  A    between atoms: C_2  and  C_3 
REMARK    2  A    between atoms: C_3  and  O_6 
REMARK    3  A    between atoms: C_3  and  C_4 
REMARK    4  A    between atoms: C_7  and  O_6 
REMARK    5  A    between atoms: C_9  and  C_10 
REMARK    6  A    between atoms: N_15  and  C_14 
REMARK    7  A    between atoms: N_20  and  C_19 
REMARK       I    between atoms: C_22  and  N_20 
ROOT
ATOM      1  C   LIG d   1      -5.817  75.818 115.870  0.00  0.00     0.161 C 
ATOM      2  C   LIG d   1      -4.716  74.981 115.622  0.00  0.00     0.016 C 
ATOM      3  C   LIG d   1      -3.548  74.975 116.419  0.00  0.00     0.038 C 
ATOM      4  C   LIG d   1      -3.463  75.703 117.615  0.00  0.00     0.028 C 
ATOM      5  C   LIG d   1      -4.350  76.943 117.634  0.00  0.00    -0.047 C 
ATOM      6  C   LIG d   1      -5.788  76.538 117.235  0.00  0.00     0.091 C 
ENDROOT
BRANCH   1   7
ATOM      7  O   LIG d   1      -7.041  75.071 115.724  0.00  0.00    -0.368 OA
BRANCH   7   8
ATOM      8  C   LIG d   1      -7.219  73.955 116.632  0.00  0.00     0.119 C 
BRANCH   8   9
ATOM      9  C   LIG d   1      -7.060  72.661 115.811  0.00  0.00     0.028 C 
ATOM     10  C   LIG d   1      -8.168  71.637 116.109  0.00  0.00     0.006 C 
ENDBRANCH   8   9
BRANCH   8  11
ATOM     11  C   LIG d   1      -8.645  73.910 117.187  0.00  0.00     0.028 C 
ATOM     12  C   LIG d   1      -9.358  75.270 117.110  0.00  0.00     0.006 C 
ENDBRANCH   8  11
ENDBRANCH   7   8
ENDBRANCH   1   7
BRANCH   6  13
ATOM     13  N   LIG d   1      -6.702  77.706 117.146  0.00  0.00    -0.311 N 
ATOM     14  C   LIG d   1      -7.454  78.127 118.162  0.00  0.00     0.210 C 
ATOM     15  C   LIG d   1      -8.341  79.337 117.852  0.00  0.00     0.109 C 
ATOM     16  O   LIG d   1      -7.447  77.632 119.299  0.00  0.00    -0.276 OA
ATOM     17  H   LIG d   1      -6.747  78.185 116.268  0.00  0.00     0.149 HD
ENDBRANCH   6  13
BRANCH   5  18
ATOM     18  N   LIG d   1      -4.269  77.529 118.986  0.00  0.00     0.381 N 
ATOM     19  H   LIG d   1      -3.316  77.550 119.289  0.00  0.00    -0.090 HD
ATOM     20  H   LIG d   1      -4.790  76.951 119.622  0.00  0.00    -0.090 HD
ATOM     21  H   LIG d   1      -4.644  78.452 118.981  0.00  0.00    -0.090 HD
ENDBRANCH   5  18
BRANCH   3  22
ATOM     22  C   LIG d   1      -2.434  74.265 115.999  0.00  0.00     0.382 C 
ATOM     23  O   LIG d   1      -1.991  74.424 114.836  0.00  0.00    -0.241 OA
ATOM     24  O   LIG d   1      -1.892  73.436 116.754  0.00  0.00    -0.241 OA
ENDBRANCH   3  22
TORSDOF 7
ENDMDL
MODEL 4
REMARK VINA RESULT:      -5.4      1.984      5.218
REMARK  7 active torsions:
REMARK  status: ('A' for Active; 'I' for Inactive)
REMARK    1  A    between atoms: C_2  and  C_3 
REMARK    2  A    between atoms: C_3  and  O_6 
REMARK    3  A    between atoms: C_3  and  C_4 
REMARK    4  A    between atoms: C_7  and  O_6 
REMARK    5  A    between atoms: C_9  and  C_10 
REMARK    6  A    between atoms: N_15  and  C_14 
REMARK    7  A    between atoms: N_20  and  C_19 
REMARK       I    between atoms: C_22  and  N_20 
ROOT
ATOM      1  C   LIG d   1      -7.607  75.808 116.977  0.00  0.00     0.161 C 
ATOM      2  C   LIG d   1      -8.243  74.560 116.865  0.00  0.00     0.016 C 
ATOM      3  C   LIG d   1      -7.565  73.371 116.507  0.00  0.00     0.038 C 
ATOM      4  C   LIG d   1      -6.169  73.322 116.385  0.00  0.00     0.028 C 
ATOM      5  C   LIG d   1      -5.548  74.658 115.994  0.00  0.00    -0.047 C 
ATOM      6  C   LIG d   1      -6.065  75.752 116.956  0.00  0.00     0.091 C 
ENDROOT
BRANCH   1   7
ATOM      7  O   LIG d   1      -8.068  76.485 118.163  0.00  0.00    -0.368 OA
BRANCH   7   8
ATOM      8  C   LIG d   1      -9.073  77.509 117.962  0.00  0.00     0.119 C 
BRANCH   8   9
ATOM      9  C   LIG d   1      -8.617  78.763 118.732  0.00  0.00     0.028 C 
ATOM     10  C   LIG d   1      -8.201  79.909 117.793  0.00  0.00     0.006 C 
ENDBRANCH   8   9
BRANCH   8  11
ATOM     11  C   LIG d   1     -10.409  77.109 118.595  0.00  0.00     0.028 C 
ATOM     12  C   LIG d   1     -10.846  78.063 119.718  0.00  0.00     0.006 C 
ENDBRANCH   8  11
ENDBRANCH   7   8
ENDBRANCH   1   7
BRANCH   6  13
ATOM     13  N   LIG d   1      -5.572  77.106 116.592  0.00  0.00    -0.311 N 
ATOM     14  C   LIG d   1      -5.028  77.948 117.469  0.00  0.00     0.210 C 
ATOM     15  C   LIG d   1      -4.604  79.301 116.889  0.00  0.00     0.109 C 
ATOM     16  O   LIG d   1      -4.826  77.691 118.665  0.00  0.00    -0.276 OA
ATOM     17  H   LIG d   1      -5.668  77.385 115.635  0.00  0.00     0.149 HD
ENDBRANCH   6  13
BRANCH   5  18
ATOM     18  N   LIG d   1      -4.082  74.498 116.036  0.00  0.00     0.381 N 
ATOM     19  H   LIG d   1      -3.648  75.194 115.464  0.00  0.00    -0.090 HD
ATOM     20  H   LIG d   1      -3.843  73.594 115.669  0.00  0.00    -0.090 HD
ATOM     21  H   LIG d   1      -3.757  74.579 116.975  0.00  0.00    -0.090 HD
ENDBRANCH   5  18
BRANCH   3  22
ATOM     22  C   LIG d   1      -8.292  72.223 116.230  0.00  0.00     0.382 C 
ATOM     23  O   LIG d   1      -7.743  71.260 115.642  0.00  0.00    -0.241 OA
ATOM     24  O   LIG d   1      -9.502  72.156 116.520  0.00  0.00    -0.241 OA
ENDBRANCH   3  22
TORSDOF 7
ENDMDL
MODEL 5
REMARK VINA RESULT:      -5.2     15.646     18.259
REMARK  7 active torsions:
REMARK  status: ('A' for Active; 'I' for Inactive)
REMARK    1  A    between atoms: C_2  and  C_3 
REMARK    2  A    between atoms: C_3  and  O_6 
REMARK    3  A    between atoms: C_3  and  C_4 
REMARK    4  A    between atoms: C_7  and  O_6 
REMARK    5  A    between atoms: C_9  and  C_10 
REMARK    6  A    between atoms: N_15  and  C_14 
REMARK    7  A    between atoms: N_20  and  C_19 
REMARK       I    between atoms: C_22  and  N_20 
ROOT
ATOM      1  C   LIG d   1      -5.087  92.161 118.004  0.00  0.00     0.161 C 
ATOM      2  C   LIG d   1      -5.208  91.290 116.908  0.00  0.00     0.016 C 
ATOM      3  C   LIG d   1      -6.351  91.241 116.077  0.00  0.00     0.038 C 
ATOM      4  C   LIG d   1      -7.395  92.170 116.196  0.00  0.00     0.028 C 
ATOM      5  C   LIG d   1      -7.543  92.738 117.604  0.00  0.00    -0.047 C 
ATOM      6  C   LIG d   1      -6.168  93.258 118.082  0.00  0.00     0.091 C 
ENDROOT
BRANCH   1   7
ATOM      7  O   LIG d   1      -3.772  92.751 118.016  0.00  0.00    -0.368 OA
BRANCH   7   8
ATOM      8  C   LIG d   1      -2.719  91.951 118.606  0.00  0.00     0.119 C 
BRANCH   8   9
ATOM      9  C   LIG d   1      -3.041  91.794 120.105  0.00  0.00     0.028 C 
ATOM     10  C   LIG d   1      -2.926  93.122 120.872  0.00  0.00     0.006 C 
ENDBRANCH   8   9
BRANCH   8  11
ATOM     11  C   LIG d   1      -1.371  92.677 118.555  0.00  0.00     0.028 C 
ATOM     12  C   LIG d   1      -1.372  93.866 117.581  0.00  0.00     0.006 C 
ENDBRANCH   8  11
ENDBRANCH   7   8
ENDBRANCH   1   7
BRANCH   6  13
ATOM     13  N   LIG d   1      -6.206  93.754 119.482  0.00  0.00    -0.311 N 
ATOM     14  C   LIG d   1      -6.422  95.029 119.803  0.00  0.00     0.210 C 
ATOM     15  C   LIG d   1      -6.401  95.330 121.305  0.00  0.00     0.109 C 
ATOM     16  O   LIG d   1      -6.662  95.932 118.988  0.00  0.00    -0.276 OA
ATOM     17  H   LIG d   1      -6.052  93.082 120.209  0.00  0.00     0.149 HD
ENDBRANCH   6  13
BRANCH   5  18
ATOM     18  N   LIG d   1      -8.574  93.792 117.553  0.00  0.00     0.381 N 
ATOM     19  H   LIG d   1      -9.285  93.539 116.895  0.00  0.00    -0.090 HD
ATOM     20  H   LIG d   1      -8.149  94.648 117.244  0.00  0.00    -0.090 HD
ATOM     21  H   LIG d   1      -8.977  93.919 118.455  0.00  0.00    -0.090 HD
ENDBRANCH   5  18
BRANCH   3  22
ATOM     22  C   LIG d   1      -6.475  90.227 115.139  0.00  0.00     0.382 C 
ATOM     23  O   LIG d   1      -5.498  89.480 114.890  0.00  0.00    -0.241 OA
ATOM     24  O   LIG d   1      -7.538  90.078 114.507  0.00  0.00    -0.241 OA
ENDBRANCH   3  22
TORSDOF 7
ENDMDL
MODEL 6
REMARK VINA RESULT:      -5.1     15.786     18.593
REMARK  7 active torsions:
REMARK  status: ('A' for Active; 'I' for Inactive)
REMARK    1  A    between atoms: C_2  and  C_3 
REMARK    2  A    between atoms: C_3  and  O_6 
REMARK    3  A    between atoms: C_3  and  C_4 
REMARK    4  A    between atoms: C_7  and  O_6 
REMARK    5  A    between atoms: C_9  and  C_10 
REMARK    6  A    between atoms: N_15  and  C_14 
REMARK    7  A    between atoms: N_20  and  C_19 
REMARK       I    between atoms: C_22  and  N_20 
ROOT
ATOM      1  C   LIG d   1      -6.124  93.286 118.077  0.00  0.00     0.161 C 
ATOM      2  C   LIG d   1      -6.922  92.565 117.174  0.00  0.00     0.016 C 
ATOM      3  C   LIG d   1      -6.446  91.471 116.417  0.00  0.00     0.038 C 
ATOM      4  C   LIG d   1      -5.171  90.924 116.625  0.00  0.00     0.028 C 
ATOM      5  C   LIG d   1      -4.160  91.932 117.162  0.00  0.00    -0.047 C 
ATOM      6  C   LIG d   1      -4.763  92.635 118.400  0.00  0.00     0.091 C 
ENDROOT
BRANCH   1   7
ATOM      7  O   LIG d   1      -6.861  93.534 119.291  0.00  0.00    -0.368 OA
BRANCH   7   8
ATOM      8  C   LIG d   1      -7.071  94.925 119.636  0.00  0.00     0.119 C 
BRANCH   8   9
ATOM      9  C   LIG d   1      -8.238  94.981 120.642  0.00  0.00     0.028 C 
ATOM     10  C   LIG d   1      -9.610  95.000 119.948  0.00  0.00     0.006 C 
ENDBRANCH   8   9
BRANCH   8  11
ATOM     11  C   LIG d   1      -7.541  95.735 118.425  0.00  0.00     0.028 C 
ATOM     12  C   LIG d   1      -6.937  97.147 118.381  0.00  0.00     0.006 C 
ENDBRANCH   8  11
ENDBRANCH   7   8
ENDBRANCH   1   7
BRANCH   6  13
ATOM     13  N   LIG d   1      -3.872  93.697 118.937  0.00  0.00    -0.311 N 
ATOM     14  C   LIG d   1      -3.003  93.493 119.926  0.00  0.00     0.210 C 
ATOM     15  C   LIG d   1      -2.197  94.728 120.342  0.00  0.00     0.109 C 
ATOM     16  O   LIG d   1      -2.801  92.400 120.476  0.00  0.00    -0.276 OA
ATOM     17  H   LIG d   1      -3.948  94.607 118.527  0.00  0.00     0.149 HD
ENDBRANCH   6  13
BRANCH   5  18
ATOM     18  N   LIG d   1      -2.916  91.198 117.463  0.00  0.00     0.381 N 
ATOM     19  H   LIG d   1      -3.100  90.480 118.134  0.00  0.00    -0.090 HD
ATOM     20  H   LIG d   1      -2.250  91.837 117.859  0.00  0.00    -0.090 HD
ATOM     21  H   LIG d   1      -2.547  90.797 116.629  0.00  0.00    -0.090 HD
ENDBRANCH   5  18
BRANCH   3  22
ATOM     22  C   LIG d   1      -7.235  90.936 115.410  0.00  0.00     0.382 C 
ATOM     23  O   LIG d   1      -7.790  91.695 114.579  0.00  0.00    -0.241 OA
ATOM     24  O   LIG d   1      -7.436  89.708 115.348  0.00  0.00    -0.241 OA
ENDBRANCH   3  22
TORSDOF 7
ENDMDL
MODEL 7
REMARK VINA RESULT:      -4.9      2.215      5.528
REMARK  7 active torsions:
REMARK  status: ('A' for Active; 'I' for Inactive)
REMARK    1  A    between atoms: C_2  and  C_3 
REMARK    2  A    between atoms: C_3  and  O_6 
REMARK    3  A    between atoms: C_3  and  C_4 
REMARK    4  A    between atoms: C_7  and  O_6 
REMARK    5  A    between atoms: C_9  and  C_10 
REMARK    6  A    between atoms: N_15  and  C_14 
REMARK    7  A    between atoms: N_20  and  C_19 
REMARK       I    between atoms: C_22  and  N_20 
ROOT
ATOM      1  C   LIG d   1      -6.630  76.705 117.183  0.00  0.00     0.161 C 
ATOM      2  C   LIG d   1      -6.901  75.383 116.795  0.00  0.00     0.016 C 
ATOM      3  C   LIG d   1      -8.162  74.766 116.963  0.00  0.00     0.038 C 
ATOM      4  C   LIG d   1      -9.288  75.485 117.393  0.00  0.00     0.028 C 
ATOM      5  C   LIG d   1      -8.941  76.683 118.271  0.00  0.00    -0.047 C 
ATOM      6  C   LIG d   1      -7.874  77.540 117.552  0.00  0.00     0.091 C 
ENDROOT
BRANCH   1   7
ATOM      7  O   LIG d   1      -5.868  77.369 116.154  0.00  0.00    -0.368 OA
BRANCH   7   8
ATOM      8  C   LIG d   1      -4.427  77.306 116.287  0.00  0.00     0.119 C 
BRANCH   8   9
ATOM      9  C   LIG d   1      -3.892  78.749 116.210  0.00  0.00     0.028 C 
ATOM     10  C   LIG d   1      -3.953  79.471 117.567  0.00  0.00     0.006 C 
ENDBRANCH   8   9
BRANCH   8  11
ATOM     11  C   LIG d   1      -3.790  76.574 115.103  0.00  0.00     0.028 C 
ATOM     12  C   LIG d   1      -3.114  75.255 115.512  0.00  0.00     0.006 C 
ENDBRANCH   8  11
ENDBRANCH   7   8
ENDBRANCH   1   7
BRANCH   6  13
ATOM     13  N   LIG d   1      -7.417  78.687 118.379  0.00  0.00    -0.311 N 
ATOM     14  C   LIG d   1      -7.692  79.957 118.086  0.00  0.00     0.210 C 
ATOM     15  C   LIG d   1      -7.108  80.986 119.059  0.00  0.00     0.109 C 
ATOM     16  O   LIG d   1      -8.391  80.327 117.131  0.00  0.00    -0.276 OA
ATOM     17  H   LIG d   1      -6.870  78.476 119.190  0.00  0.00     0.149 HD
ENDBRANCH   6  13
BRANCH   5  18
ATOM     18  N   LIG d   1     -10.192  77.419 118.533  0.00  0.00     0.381 N 
ATOM     19  H   LIG d   1     -10.420  77.993 117.746  0.00  0.00    -0.090 HD
ATOM     20  H   LIG d   1     -10.057  78.017 119.330  0.00  0.00    -0.090 HD
ATOM     21  H   LIG d   1     -10.934  76.779 118.712  0.00  0.00    -0.090 HD
ENDBRANCH   5  18
BRANCH   3  22
ATOM     22  C   LIG d   1      -8.298  73.405 116.735  0.00  0.00     0.382 C 
ATOM     23  O   LIG d   1      -9.368  72.823 117.033  0.00  0.00    -0.241 OA
ATOM     24  O   LIG d   1      -7.347  72.744 116.277  0.00  0.00    -0.241 OA
ENDBRANCH   3  22
TORSDOF 7
ENDMDL
MODEL 8
REMARK VINA RESULT:      -4.9      2.493      3.408
REMARK  7 active torsions:
REMARK  status: ('A' for Active; 'I' for Inactive)
REMARK    1  A    between atoms: C_2  and  C_3 
REMARK    2  A    between atoms: C_3  and  O_6 
REMARK    3  A    between atoms: C_3  and  C_4 
REMARK    4  A    between atoms: C_7  and  O_6 
REMARK    5  A    between atoms: C_9  and  C_10 
REMARK    6  A    between atoms: N_15  and  C_14 
REMARK    7  A    between atoms: N_20  and  C_19 
REMARK       I    between atoms: C_22  and  N_20 
ROOT
ATOM      1  C   LIG d   1      -5.583  76.867 117.115  0.00  0.00     0.161 C 
ATOM      2  C   LIG d   1      -6.393  77.995 117.325  0.00  0.00     0.016 C 
ATOM      3  C   LIG d   1      -5.903  79.321 117.298  0.00  0.00     0.038 C 
ATOM      4  C   LIG d   1      -4.588  79.618 116.908  0.00  0.00     0.028 C 
ATOM      5  C   LIG d   1      -3.605  78.483 117.179  0.00  0.00    -0.047 C 
ATOM      6  C   LIG d   1      -4.170  77.176 116.578  0.00  0.00     0.091 C 
ENDROOT
BRANCH   1   7
ATOM      7  O   LIG d   1      -6.257  75.936 116.245  0.00  0.00    -0.368 OA
BRANCH   7   8
ATOM      8  C   LIG d   1      -6.460  74.602 116.772  0.00  0.00     0.119 C 
BRANCH   8   9
ATOM      9  C   LIG d   1      -6.703  73.663 115.575  0.00  0.00     0.028 C 
ATOM     10  C   LIG d   1      -7.007  72.220 116.013  0.00  0.00     0.006 C 
ENDBRANCH   8   9
BRANCH   8  11
ATOM     11  C   LIG d   1      -7.737  74.525 117.615  0.00  0.00     0.028 C 
ATOM     12  C   LIG d   1      -8.897  75.334 117.014  0.00  0.00     0.006 C 
ENDBRANCH   8  11
ENDBRANCH   7   8
ENDBRANCH   1   7
BRANCH   6  13
ATOM     13  N   LIG d   1      -3.310  76.000 116.871  0.00  0.00    -0.311 N 
ATOM     14  C   LIG d   1      -2.902  75.139 115.940  0.00  0.00     0.210 C 
ATOM     15  C   LIG d   1      -2.039  73.985 116.460  0.00  0.00     0.109 C 
ATOM     16  O   LIG d   1      -3.146  75.240 114.729  0.00  0.00    -0.276 OA
ATOM     17  H   LIG d   1      -3.039  75.860 117.825  0.00  0.00     0.149 HD
ENDBRANCH   6  13
BRANCH   5  18
ATOM     18  N   LIG d   1      -2.306  78.872 116.600  0.00  0.00     0.381 N 
ATOM     19  H   LIG d   1      -1.781  78.053 116.364  0.00  0.00    -0.090 HD
ATOM     20  H   LIG d   1      -1.787  79.393 117.285  0.00  0.00    -0.090 HD
ATOM     21  H   LIG d   1      -2.448  79.430 115.786  0.00  0.00    -0.090 HD
ENDBRANCH   5  18
BRANCH   3  22
ATOM     22  C   LIG d   1      -6.721  80.364 117.704  0.00  0.00     0.382 C 
ATOM     23  O   LIG d   1      -7.875  80.479 117.225  0.00  0.00    -0.241 OA
ATOM     24  O   LIG d   1      -6.303  81.218 118.509  0.00  0.00    -0.241 OA
ENDBRANCH   3  22
TORSDOF 7
ENDMDL
MODEL 9
REMARK VINA RESULT:      -4.8      2.168      4.804
REMARK  7 active torsions:
REMARK  status: ('A' for Active; 'I' for Inactive)
REMARK    1  A    between atoms: C_2  and  C_3 
REMARK    2  A    between atoms: C_3  and  O_6 
REMARK    3  A    between atoms: C_3  and  C_4 
REMARK    4  A    between atoms: C_7  and  O_6 
REMARK    5  A    between atoms: C_9  and  C_10 
REMARK    6  A    between atoms: N_15  and  C_14 
REMARK    7  A    between atoms: N_20  and  C_19 
REMARK       I    between atoms: C_22  and  N_20 
ROOT
ATOM      1  C   LIG d   1      -5.977  76.814 116.544  0.00  0.00     0.161 C 
ATOM      2  C   LIG d   1      -6.221  78.128 116.975  0.00  0.00     0.016 C 
ATOM      3  C   LIG d   1      -7.400  78.519 117.652  0.00  0.00     0.038 C 
ATOM      4  C   LIG d   1      -8.354  77.584 118.079  0.00  0.00     0.028 C 
ATOM      5  C   LIG d   1      -8.391  76.321 117.224  0.00  0.00    -0.047 C 
ATOM      6  C   LIG d   1      -6.957  75.758 117.099  0.00  0.00     0.091 C 
ENDROOT
BRANCH   1   7
ATOM      7  O   LIG d   1      -4.618  76.444 116.847  0.00  0.00    -0.368 OA
BRANCH   7   8
ATOM      8  C   LIG d   1      -3.650  76.652 115.789  0.00  0.00     0.119 C 
BRANCH   8   9
ATOM      9  C   LIG d   1      -3.195  75.263 115.299  0.00  0.00     0.028 C 
ATOM     10  C   LIG d   1      -3.171  74.221 116.429  0.00  0.00     0.006 C 
ENDBRANCH   8   9
BRANCH   8  11
ATOM     11  C   LIG d   1      -2.382  77.329 116.319  0.00  0.00     0.028 C 
ATOM     12  C   LIG d   1      -2.551  78.845 116.506  0.00  0.00     0.006 C 
ENDBRANCH   8  11
ENDBRANCH   7   8
ENDBRANCH   1   7
BRANCH   6  13
ATOM     13  N   LIG d   1      -6.890  74.570 116.209  0.00  0.00    -0.311 N 
ATOM     14  C   LIG d   1      -6.871  73.317 116.659  0.00  0.00     0.210 C 
ATOM     15  C   LIG d   1      -6.780  72.241 115.573  0.00  0.00     0.109 C 
ATOM     16  O   LIG d   1      -6.953  72.993 117.853  0.00  0.00    -0.276 OA
ATOM     17  H   LIG d   1      -6.852  74.740 115.223  0.00  0.00     0.149 HD
ENDBRANCH   6  13
BRANCH   5  18
ATOM     18  N   LIG d   1      -9.329  75.378 117.862  0.00  0.00     0.381 N 
ATOM     19  H   LIG d   1      -9.867  74.909 117.160  0.00  0.00    -0.090 HD
ATOM     20  H   LIG d   1      -9.959  75.894 118.450  0.00  0.00    -0.090 HD
ATOM     21  H   LIG d   1      -8.826  74.712 118.405  0.00  0.00    -0.090 HD
ENDBRANCH   5  18
BRANCH   3  22
ATOM     22  C   LIG d   1      -7.652  79.864 117.872  0.00  0.00     0.382 C 
ATOM     23  O   LIG d   1      -7.265  80.719 117.039  0.00  0.00    -0.241 OA
ATOM     24  O   LIG d   1      -8.222  80.238 118.914  0.00  0.00    -0.241 OA
ENDBRANCH   3  22
TORSDOF 7
ENDMDL
