MODEL 1
REMARK VINA RESULT:      -5.5      0.000      0.000
REMARK  7 active torsions:
REMARK  status: ('A' for Active; 'I' for Inactive)
REMARK    1  A    between atoms: C_2  and  C_3 
REMARK    2  A    between atoms: C_3  and  O_6 
REMARK    3  A    between atoms: C_3  and  C_4 
REMARK    4  A    between atoms: C_7  and  O_6 
REMARK    5  A    between atoms: C_9  and  C_10 
REMARK    6  A    between atoms: N_15  and  C_14 
REMARK    7  A    between atoms: N_20  and  C_19 
REMARK       I    between atoms: C_22  and  N_20 
ROOT
ATOM      1  C   LIG d   1       0.719  57.662 118.065  0.00  0.00     0.161 C 
ATOM      2  C   LIG d   1       0.678  58.590 117.011  0.00  0.00     0.016 C 
ATOM      3  C   LIG d   1      -0.463  58.801 116.204  0.00  0.00     0.038 C 
ATOM      4  C   LIG d   1      -1.698  58.203 116.495  0.00  0.00     0.028 C 
ATOM      5  C   LIG d   1      -1.569  56.879 117.240  0.00  0.00    -0.047 C 
ATOM      6  C   LIG d   1      -0.653  57.081 118.468  0.00  0.00     0.091 C 
ENDROOT
BRANCH   1   7
ATOM      7  O   LIG d   1       1.369  58.251 119.209  0.00  0.00    -0.368 OA
BRANCH   7   8
ATOM      8  C   LIG d   1       1.739  59.646 119.084  0.00  0.00     0.119 C 
BRANCH   8   9
ATOM      9  C   LIG d   1       3.254  59.749 119.349  0.00  0.00     0.028 C 
ATOM     10  C   LIG d   1       4.081  59.692 118.053  0.00  0.00     0.006 C 
ENDBRANCH   8   9
BRANCH   8  11
ATOM     11  C   LIG d   1       1.078  60.497 120.172  0.00  0.00     0.028 C 
ATOM     12  C   LIG d   1      -0.450  60.569 120.027  0.00  0.00     0.006 C 
ENDBRANCH   8  11
ENDBRANCH   7   8
ENDBRANCH   1   7
BRANCH   6  13
ATOM     13  N   LIG d   1      -0.405  55.815 119.206  0.00  0.00    -0.311 N 
ATOM     14  C   LIG d   1      -0.398  55.730 120.535  0.00  0.00     0.210 C 
ATOM     15  C   LIG d   1      -0.102  54.334 121.092  0.00  0.00     0.109 C 
ATOM     16  O   LIG d   1      -0.639  56.672 121.305  0.00  0.00    -0.276 OA
ATOM     17  H   LIG d   1      -0.231  54.995 118.658  0.00  0.00     0.149 HD
ENDBRANCH   6  13
BRANCH   5  18
ATOM     18  N   LIG d   1      -2.929  56.435 117.600  0.00  0.00     0.381 N 
ATOM     19  H   LIG d   1      -2.883  55.780 118.354  0.00  0.00    -0.090 HD
ATOM     20  H   LIG d   1      -3.342  55.975 116.807  0.00  0.00    -0.090 HD
ATOM     21  H   LIG d   1      -3.484  57.219 117.864  0.00  0.00    -0.090 HD
ENDBRANCH   5  18
BRANCH   3  22
ATOM     22  C   LIG d   1      -0.365  59.589 115.067  0.00  0.00     0.382 C 
ATOM     23  O   LIG d   1      -1.377  60.186 114.628  0.00  0.00    -0.241 OA
ATOM     24  O   LIG d   1       0.714  59.675 114.449  0.00  0.00    -0.241 OA
ENDBRANCH   3  22
TORSDOF 7
ENDMDL
MODEL 2
REMARK VINA RESULT:      -5.4     18.738     20.967
REMARK  7 active torsions:
REMARK  status: ('A' for Active; 'I' for Inactive)
REMARK    1  A    between atoms: C_2  and  C_3 
REMARK    2  A    between atoms: C_3  and  O_6 
REMARK    3  A    between atoms: C_3  and  C_4 
REMARK    4  A    between atoms: C_7  and  O_6 
REMARK    5  A    between atoms: C_9  and  C_10 
REMARK    6  A    between atoms: N_15  and  C_14 
REMARK    7  A    between atoms: N_20  and  C_19 
REMARK       I    between atoms: C_22  and  N_20 
ROOT
ATOM      1  C   LIG d   1      -6.571  76.883 118.293  0.00  0.00     0.161 C 
ATOM      2  C   LIG d   1      -7.951  76.776 118.534  0.00  0.00     0.016 C 
ATOM      3  C   LIG d   1      -8.849  77.861 118.411  0.00  0.00     0.038 C 
ATOM      4  C   LIG d   1      -8.448  79.099 117.887  0.00  0.00     0.028 C 
ATOM      5  C   LIG d   1      -6.969  79.400 118.108  0.00  0.00    -0.047 C 
ATOM      6  C   LIG d   1      -6.133  78.197 117.614  0.00  0.00     0.091 C 
ENDROOT
BRANCH   1   7
ATOM      7  O   LIG d   1      -6.120  75.748 117.527  0.00  0.00    -0.368 OA
BRANCH   7   8
ATOM      8  C   LIG d   1      -7.077  75.187 116.595  0.00  0.00     0.119 C 
BRANCH   8   9
ATOM      9  C   LIG d   1      -6.972  73.652 116.692  0.00  0.00     0.028 C 
ATOM     10  C   LIG d   1      -8.178  73.026 117.411  0.00  0.00     0.006 C 
ENDBRANCH   8   9
BRANCH   8  11
ATOM     11  C   LIG d   1      -6.713  75.528 115.148  0.00  0.00     0.028 C 
ATOM     12  C   LIG d   1      -5.244  75.220 114.815  0.00  0.00     0.006 C 
ENDBRANCH   8  11
ENDBRANCH   7   8
ENDBRANCH   1   7
BRANCH   6  13
ATOM     13  N   LIG d   1      -4.680  78.374 117.870  0.00  0.00    -0.311 N 
ATOM     14  C   LIG d   1      -3.770  78.457 116.901  0.00  0.00     0.210 C 
ATOM     15  C   LIG d   1      -2.325  78.617 117.384  0.00  0.00     0.109 C 
ATOM     16  O   LIG d   1      -4.025  78.447 115.688  0.00  0.00    -0.276 OA
ATOM     17  H   LIG d   1      -4.388  78.423 118.826  0.00  0.00     0.149 HD
ENDBRANCH   6  13
BRANCH   5  18
ATOM     18  N   LIG d   1      -6.658  80.653 117.394  0.00  0.00     0.381 N 
ATOM     19  H   LIG d   1      -6.846  81.436 117.987  0.00  0.00    -0.090 HD
ATOM     20  H   LIG d   1      -7.249  80.721 116.584  0.00  0.00    -0.090 HD
ATOM     21  H   LIG d   1      -5.701  80.659 117.117  0.00  0.00    -0.090 HD
ENDBRANCH   5  18
BRANCH   3  22
ATOM     22  C   LIG d   1     -10.157  77.725 118.851  0.00  0.00     0.382 C 
ATOM     23  O   LIG d   1     -10.486  78.158 119.981  0.00  0.00    -0.241 OA
ATOM     24  O   LIG d   1     -11.001  77.134 118.151  0.00  0.00    -0.241 OA
ENDBRANCH   3  22
TORSDOF 7
ENDMDL
MODEL 3
REMARK VINA RESULT:      -5.4     19.003     20.975
REMARK  7 active torsions:
REMARK  status: ('A' for Active; 'I' for Inactive)
REMARK    1  A    between atoms: C_2  and  C_3 
REMARK    2  A    between atoms: C_3  and  O_6 
REMARK    3  A    between atoms: C_3  and  C_4 
REMARK    4  A    between atoms: C_7  and  O_6 
REMARK    5  A    between atoms: C_9  and  C_10 
REMARK    6  A    between atoms: N_15  and  C_14 
REMARK    7  A    between atoms: N_20  and  C_19 
REMARK       I    between atoms: C_22  and  N_20 
ROOT
ATOM      1  C   LIG d   1      -6.856  77.687 117.302  0.00  0.00     0.161 C 
ATOM      2  C   LIG d   1      -5.918  77.471 116.280  0.00  0.00     0.016 C 
ATOM      3  C   LIG d   1      -5.768  76.235 115.609  0.00  0.00     0.038 C 
ATOM      4  C   LIG d   1      -6.657  75.169 115.813  0.00  0.00     0.028 C 
ATOM      5  C   LIG d   1      -7.301  75.173 117.195  0.00  0.00    -0.047 C 
ATOM      6  C   LIG d   1      -7.908  76.569 117.461  0.00  0.00     0.091 C 
ENDROOT
BRANCH   1   7
ATOM      7  O   LIG d   1      -7.503  78.961 117.110  0.00  0.00    -0.368 OA
BRANCH   7   8
ATOM      8  C   LIG d   1      -6.750  80.127 117.523  0.00  0.00     0.119 C 
BRANCH   8   9
ATOM      9  C   LIG d   1      -6.397  79.946 119.012  0.00  0.00     0.028 C 
ATOM     10  C   LIG d   1      -6.042  81.276 119.697  0.00  0.00     0.006 C 
ENDBRANCH   8   9
BRANCH   8  11
ATOM     11  C   LIG d   1      -7.607  81.395 117.461  0.00  0.00     0.028 C 
ATOM     12  C   LIG d   1      -9.114  81.099 117.534  0.00  0.00     0.006 C 
ENDBRANCH   8  11
ENDBRANCH   7   8
ENDBRANCH   1   7
BRANCH   6  13
ATOM     13  N   LIG d   1      -8.485  76.686 118.826  0.00  0.00    -0.311 N 
ATOM     14  C   LIG d   1      -9.716  77.136 119.065  0.00  0.00     0.210 C 
ATOM     15  C   LIG d   1     -10.106  77.194 120.546  0.00  0.00     0.109 C 
ATOM     16  O   LIG d   1     -10.532  77.462 118.191  0.00  0.00    -0.276 OA
ATOM     17  H   LIG d   1      -7.902  76.413 119.592  0.00  0.00     0.149 HD
ENDBRANCH   6  13
BRANCH   5  18
ATOM     18  N   LIG d   1      -8.304  74.092 117.222  0.00  0.00     0.381 N 
ATOM     19  H   LIG d   1      -8.943  74.242 117.977  0.00  0.00    -0.090 HD
ATOM     20  H   LIG d   1      -7.835  73.217 117.376  0.00  0.00    -0.090 HD
ATOM     21  H   LIG d   1      -8.799  74.064 116.358  0.00  0.00    -0.090 HD
ENDBRANCH   5  18
BRANCH   3  22
ATOM     22  C   LIG d   1      -4.696  76.044 114.751  0.00  0.00     0.382 C 
ATOM     23  O   LIG d   1      -3.778  75.248 115.063  0.00  0.00    -0.241 OA
ATOM     24  O   LIG d   1      -4.613  76.691 113.690  0.00  0.00    -0.241 OA
ENDBRANCH   3  22
TORSDOF 7
ENDMDL
MODEL 4
REMARK VINA RESULT:      -5.4     15.925     17.723
REMARK  7 active torsions:
REMARK  status: ('A' for Active; 'I' for Inactive)
REMARK    1  A    between atoms: C_2  and  C_3 
REMARK    2  A    between atoms: C_3  and  O_6 
REMARK    3  A    between atoms: C_3  and  C_4 
REMARK    4  A    between atoms: C_7  and  O_6 
REMARK    5  A    between atoms: C_9  and  C_10 
REMARK    6  A    between atoms: N_15  and  C_14 
REMARK    7  A    between atoms: N_20  and  C_19 
REMARK       I    between atoms: C_22  and  N_20 
ROOT
ATOM      1  C   LIG d   1      -3.755  74.552 117.025  0.00  0.00     0.161 C 
ATOM      2  C   LIG d   1      -2.683  75.284 116.487  0.00  0.00     0.016 C 
ATOM      3  C   LIG d   1      -2.799  76.110 115.346  0.00  0.00     0.038 C 
ATOM      4  C   LIG d   1      -4.039  76.382 114.751  0.00  0.00     0.028 C 
ATOM      5  C   LIG d   1      -5.063  75.270 114.951  0.00  0.00    -0.047 C 
ATOM      6  C   LIG d   1      -5.140  74.923 116.455  0.00  0.00     0.091 C 
ENDROOT
BRANCH   1   7
ATOM      7  O   LIG d   1      -3.756  74.671 118.461  0.00  0.00    -0.368 OA
BRANCH   7   8
ATOM      8  C   LIG d   1      -2.474  74.941 119.079  0.00  0.00     0.119 C 
BRANCH   8   9
ATOM      9  C   LIG d   1      -1.984  73.629 119.722  0.00  0.00     0.028 C 
ATOM     10  C   LIG d   1      -0.554  73.262 119.291  0.00  0.00     0.006 C 
ENDBRANCH   8   9
BRANCH   8  11
ATOM     11  C   LIG d   1      -2.612  75.933 120.238  0.00  0.00     0.028 C 
ATOM     12  C   LIG d   1      -3.988  76.616 120.277  0.00  0.00     0.006 C 
ENDBRANCH   8  11
ENDBRANCH   7   8
ENDBRANCH   1   7
BRANCH   6  13
ATOM     13  N   LIG d   1      -6.058  73.786 116.728  0.00  0.00    -0.311 N 
ATOM     14  C   LIG d   1      -7.339  73.941 117.058  0.00  0.00     0.210 C 
ATOM     15  C   LIG d   1      -8.102  72.638 117.317  0.00  0.00     0.109 C 
ATOM     16  O   LIG d   1      -7.924  75.032 117.128  0.00  0.00    -0.276 OA
ATOM     17  H   LIG d   1      -5.673  72.864 116.663  0.00  0.00     0.149 HD
ENDBRANCH   6  13
BRANCH   5  18
ATOM     18  N   LIG d   1      -6.348  75.743 114.400  0.00  0.00     0.381 N 
ATOM     19  H   LIG d   1      -6.886  74.963 114.078  0.00  0.00    -0.090 HD
ATOM     20  H   LIG d   1      -6.164  76.344 113.616  0.00  0.00    -0.090 HD
ATOM     21  H   LIG d   1      -6.856  76.240 115.098  0.00  0.00    -0.090 HD
ENDBRANCH   5  18
BRANCH   3  22
ATOM     22  C   LIG d   1      -1.658  76.644 114.766  0.00  0.00     0.382 C 
ATOM     23  O   LIG d   1      -0.723  77.063 115.490  0.00  0.00    -0.241 OA
ATOM     24  O   LIG d   1      -1.571  76.752 113.528  0.00  0.00    -0.241 OA
ENDBRANCH   3  22
TORSDOF 7
ENDMDL
MODEL 5
REMARK VINA RESULT:      -5.1     17.697     19.786
REMARK  7 active torsions:
REMARK  status: ('A' for Active; 'I' for Inactive)
REMARK    1  A    between atoms: C_2  and  C_3 
REMARK    2  A    between atoms: C_3  and  O_6 
REMARK    3  A    between atoms: C_3  and  C_4 
REMARK    4  A    between atoms: C_7  and  O_6 
REMARK    5  A    between atoms: C_9  and  C_10 
REMARK    6  A    between atoms: N_15  and  C_14 
REMARK    7  A    between atoms: N_20  and  C_19 
REMARK       I    between atoms: C_22  and  N_20 
ROOT
ATOM      1  C   LIG d   1      -5.790  76.449 118.408  0.00  0.00     0.161 C 
ATOM      2  C   LIG d   1      -6.646  77.508 118.062  0.00  0.00     0.016 C 
ATOM      3  C   LIG d   1      -6.185  78.757 117.588  0.00  0.00     0.038 C 
ATOM      4  C   LIG d   1      -4.834  78.982 117.281  0.00  0.00     0.028 C 
ATOM      5  C   LIG d   1      -3.877  78.113 118.090  0.00  0.00    -0.047 C 
ATOM      6  C   LIG d   1      -4.321  76.637 117.976  0.00  0.00     0.091 C 
ENDROOT
BRANCH   1   7
ATOM      7  O   LIG d   1      -6.311  75.210 117.888  0.00  0.00    -0.368 OA
BRANCH   7   8
ATOM      8  C   LIG d   1      -7.000  75.292 116.616  0.00  0.00     0.119 C 
BRANCH   8   9
ATOM      9  C   LIG d   1      -8.320  74.508 116.753  0.00  0.00     0.028 C 
ATOM     10  C   LIG d   1      -8.116  73.124 117.392  0.00  0.00     0.006 C 
ENDBRANCH   8   9
BRANCH   8  11
ATOM     11  C   LIG d   1      -6.217  74.578 115.511  0.00  0.00     0.028 C 
ATOM     12  C   LIG d   1      -5.391  75.544 114.647  0.00  0.00     0.006 C 
ENDBRANCH   8  11
ENDBRANCH   7   8
ENDBRANCH   1   7
BRANCH   6  13
ATOM     13  N   LIG d   1      -3.488  75.728 118.806  0.00  0.00    -0.311 N 
ATOM     14  C   LIG d   1      -2.941  74.606 118.342  0.00  0.00     0.210 C 
ATOM     15  C   LIG d   1      -2.136  73.806 119.370  0.00  0.00     0.109 C 
ATOM     16  O   LIG d   1      -3.020  74.214 117.168  0.00  0.00    -0.276 OA
ATOM     17  H   LIG d   1      -3.347  75.986 119.763  0.00  0.00     0.149 HD
ENDBRANCH   6  13
BRANCH   5  18
ATOM     18  N   LIG d   1      -2.516  78.349 117.574  0.00  0.00     0.381 N 
ATOM     19  H   LIG d   1      -2.217  77.562 117.034  0.00  0.00    -0.090 HD
ATOM     20  H   LIG d   1      -1.888  78.456 118.350  0.00  0.00    -0.090 HD
ATOM     21  H   LIG d   1      -2.503  79.171 117.010  0.00  0.00    -0.090 HD
ENDBRANCH   5  18
BRANCH   3  22
ATOM     22  C   LIG d   1      -7.075  79.812 117.452  0.00  0.00     0.382 C 
ATOM     23  O   LIG d   1      -8.253  79.695 117.867  0.00  0.00    -0.241 OA
ATOM     24  O   LIG d   1      -6.727  80.863 116.881  0.00  0.00    -0.241 OA
ENDBRANCH   3  22
TORSDOF 7
ENDMDL
MODEL 6
REMARK VINA RESULT:      -5.1     31.379     33.407
REMARK  7 active torsions:
REMARK  status: ('A' for Active; 'I' for Inactive)
REMARK    1  A    between atoms: C_2  and  C_3 
REMARK    2  A    between atoms: C_3  and  O_6 
REMARK    3  A    between atoms: C_3  and  C_4 
REMARK    4  A    between atoms: C_7  and  O_6 
REMARK    5  A    between atoms: C_9  and  C_10 
REMARK    6  A    between atoms: N_15  and  C_14 
REMARK    7  A    between atoms: N_20  and  C_19 
REMARK       I    between atoms: C_22  and  N_20 
ROOT
ATOM      1  C   LIG d   1      -4.282  90.952 117.963  0.00  0.00     0.161 C 
ATOM      2  C   LIG d   1      -3.800  91.624 119.098  0.00  0.00     0.016 C 
ATOM      3  C   LIG d   1      -4.528  92.629 119.775  0.00  0.00     0.038 C 
ATOM      4  C   LIG d   1      -5.860  92.926 119.450  0.00  0.00     0.028 C 
ATOM      5  C   LIG d   1      -6.209  92.630 117.995  0.00  0.00    -0.047 C 
ATOM      6  C   LIG d   1      -5.777  91.184 117.660  0.00  0.00     0.091 C 
ENDROOT
BRANCH   1   7
ATOM      7  O   LIG d   1      -4.007  89.542 118.076  0.00  0.00    -0.368 OA
BRANCH   7   8
ATOM      8  C   LIG d   1      -2.735  89.186 118.671  0.00  0.00     0.119 C 
BRANCH   8   9
ATOM      9  C   LIG d   1      -1.749  88.905 117.520  0.00  0.00     0.028 C 
ATOM     10  C   LIG d   1      -0.696  90.015 117.365  0.00  0.00     0.006 C 
ENDBRANCH   8   9
BRANCH   8  11
ATOM     11  C   LIG d   1      -2.832  87.873 119.452  0.00  0.00     0.028 C 
ATOM     12  C   LIG d   1      -1.872  86.794 118.926  0.00  0.00     0.006 C 
ENDBRANCH   8  11
ENDBRANCH   7   8
ENDBRANCH   1   7
BRANCH   6  13
ATOM     13  N   LIG d   1      -6.006  90.841 116.232  0.00  0.00    -0.311 N 
ATOM     14  C   LIG d   1      -7.082  90.187 115.799  0.00  0.00     0.210 C 
ATOM     15  C   LIG d   1      -7.111  89.917 114.291  0.00  0.00     0.109 C 
ATOM     16  O   LIG d   1      -8.031  89.833 116.515  0.00  0.00    -0.276 OA
ATOM     17  H   LIG d   1      -5.301  91.118 115.578  0.00  0.00     0.149 HD
ENDBRANCH   6  13
BRANCH   5  18
ATOM     18  N   LIG d   1      -7.657  92.854 117.830  0.00  0.00     0.381 N 
ATOM     19  H   LIG d   1      -7.896  92.827 116.858  0.00  0.00    -0.090 HD
ATOM     20  H   LIG d   1      -7.888  93.766 118.185  0.00  0.00    -0.090 HD
ATOM     21  H   LIG d   1      -8.169  92.158 118.325  0.00  0.00    -0.090 HD
ENDBRANCH   5  18
BRANCH   3  22
ATOM     22  C   LIG d   1      -3.909  93.378 120.765  0.00  0.00     0.382 C 
ATOM     23  O   LIG d   1      -2.757  93.070 121.155  0.00  0.00    -0.241 OA
ATOM     24  O   LIG d   1      -4.506  94.329 121.304  0.00  0.00    -0.241 OA
ENDBRANCH   3  22
TORSDOF 7
ENDMDL
MODEL 7
REMARK VINA RESULT:      -5.0     19.131     21.025
REMARK  7 active torsions:
REMARK  status: ('A' for Active; 'I' for Inactive)
REMARK    1  A    between atoms: C_2  and  C_3 
REMARK    2  A    between atoms: C_3  and  O_6 
REMARK    3  A    between atoms: C_3  and  C_4 
REMARK    4  A    between atoms: C_7  and  O_6 
REMARK    5  A    between atoms: C_9  and  C_10 
REMARK    6  A    between atoms: N_15  and  C_14 
REMARK    7  A    between atoms: N_20  and  C_19 
REMARK       I    between atoms: C_22  and  N_20 
ROOT
ATOM      1  C   LIG d   1      -6.669  77.883 117.190  0.00  0.00     0.161 C 
ATOM      2  C   LIG d   1      -6.707  79.287 117.241  0.00  0.00     0.016 C 
ATOM      3  C   LIG d   1      -7.819  80.018 117.717  0.00  0.00     0.038 C 
ATOM      4  C   LIG d   1      -8.918  79.389 118.320  0.00  0.00     0.028 C 
ATOM      5  C   LIG d   1      -9.142  77.962 117.831  0.00  0.00    -0.047 C 
ATOM      6  C   LIG d   1      -7.814  77.178 117.947  0.00  0.00     0.091 C 
ENDROOT
BRANCH   1   7
ATOM      7  O   LIG d   1      -5.392  77.411 117.662  0.00  0.00    -0.368 OA
BRANCH   7   8
ATOM      8  C   LIG d   1      -4.431  77.045 116.641  0.00  0.00     0.119 C 
BRANCH   8   9
ATOM      9  C   LIG d   1      -4.564  75.528 116.404  0.00  0.00     0.028 C 
ATOM     10  C   LIG d   1      -5.185  75.200 115.036  0.00  0.00     0.006 C 
ENDBRANCH   8   9
BRANCH   8  11
ATOM     11  C   LIG d   1      -2.994  77.255 117.127  0.00  0.00     0.028 C 
ATOM     12  C   LIG d   1      -2.765  78.653 117.723  0.00  0.00     0.006 C 
ENDBRANCH   8  11
ENDBRANCH   7   8
ENDBRANCH   1   7
BRANCH   6  13
ATOM     13  N   LIG d   1      -7.924  75.796 117.410  0.00  0.00    -0.311 N 
ATOM     14  C   LIG d   1      -8.186  74.734 118.169  0.00  0.00     0.210 C 
ATOM     15  C   LIG d   1      -8.235  73.399 117.419  0.00  0.00     0.109 C 
ATOM     16  O   LIG d   1      -8.414  74.774 119.388  0.00  0.00    -0.276 OA
ATOM     17  H   LIG d   1      -7.784  75.676 116.426  0.00  0.00     0.149 HD
ENDBRANCH   6  13
BRANCH   5  18
ATOM     18  N   LIG d   1     -10.230  77.379 118.639  0.00  0.00     0.381 N 
ATOM     19  H   LIG d   1     -11.052  77.278 118.078  0.00  0.00    -0.090 HD
ATOM     20  H   LIG d   1     -10.440  78.003 119.398  0.00  0.00    -0.090 HD
ATOM     21  H   LIG d   1      -9.951  76.491 118.996  0.00  0.00    -0.090 HD
ENDBRANCH   5  18
BRANCH   3  22
ATOM     22  C   LIG d   1      -7.856  81.395 117.556  0.00  0.00     0.382 C 
ATOM     23  O   LIG d   1      -7.754  82.146 118.555  0.00  0.00    -0.241 OA
ATOM     24  O   LIG d   1      -8.034  81.895 116.429  0.00  0.00    -0.241 OA
ENDBRANCH   3  22
TORSDOF 7
ENDMDL
MODEL 8
REMARK VINA RESULT:      -5.0     20.587     22.733
REMARK  7 active torsions:
REMARK  status: ('A' for Active; 'I' for Inactive)
REMARK    1  A    between atoms: C_2  and  C_3 
REMARK    2  A    between atoms: C_3  and  O_6 
REMARK    3  A    between atoms: C_3  and  C_4 
REMARK    4  A    between atoms: C_7  and  O_6 
REMARK    5  A    between atoms: C_9  and  C_10 
REMARK    6  A    between atoms: N_15  and  C_14 
REMARK    7  A    between atoms: N_20  and  C_19 
REMARK       I    between atoms: C_22  and  N_20 
ROOT
ATOM      1  C   LIG d   1      -8.324  78.853 118.504  0.00  0.00     0.161 C 
ATOM      2  C   LIG d   1      -9.308  79.699 117.966  0.00  0.00     0.016 C 
ATOM      3  C   LIG d   1      -9.248  81.109 118.040  0.00  0.00     0.038 C 
ATOM      4  C   LIG d   1      -8.115  81.778 118.528  0.00  0.00     0.028 C 
ATOM      5  C   LIG d   1      -7.319  80.961 119.541  0.00  0.00    -0.047 C 
ATOM      6  C   LIG d   1      -7.028  79.566 118.942  0.00  0.00     0.091 C 
ENDROOT
BRANCH   1   7
ATOM      7  O   LIG d   1      -8.024  77.797 117.571  0.00  0.00    -0.368 OA
BRANCH   7   8
ATOM      8  C   LIG d   1      -8.773  76.568 117.736  0.00  0.00     0.119 C 
BRANCH   8   9
ATOM      9  C   LIG d   1      -8.023  75.704 118.769  0.00  0.00     0.028 C 
ATOM     10  C   LIG d   1      -8.756  75.634 120.119  0.00  0.00     0.006 C 
ENDBRANCH   8   9
BRANCH   8  11
ATOM     11  C   LIG d   1      -8.782  75.742 116.446  0.00  0.00     0.028 C 
ATOM     12  C   LIG d   1      -7.457  75.833 115.672  0.00  0.00     0.006 C 
ENDBRANCH   8  11
ENDBRANCH   7   8
ENDBRANCH   1   7
BRANCH   6  13
ATOM     13  N   LIG d   1      -6.325  78.674 119.900  0.00  0.00    -0.311 N 
ATOM     14  C   LIG d   1      -5.217  78.000 119.597  0.00  0.00     0.210 C 
ATOM     15  C   LIG d   1      -4.666  77.121 120.724  0.00  0.00     0.109 C 
ATOM     16  O   LIG d   1      -4.621  78.071 118.512  0.00  0.00    -0.276 OA
ATOM     17  H   LIG d   1      -6.723  78.582 120.814  0.00  0.00     0.149 HD
ENDBRANCH   6  13
BRANCH   5  18
ATOM     18  N   LIG d   1      -6.095  81.720 119.862  0.00  0.00     0.381 N 
ATOM     19  H   LIG d   1      -6.336  82.561 120.348  0.00  0.00    -0.090 HD
ATOM     20  H   LIG d   1      -5.635  81.972 119.005  0.00  0.00    -0.090 HD
ATOM     21  H   LIG d   1      -5.488  81.165 120.423  0.00  0.00    -0.090 HD
ENDBRANCH   5  18
BRANCH   3  22
ATOM     22  C   LIG d   1     -10.346  81.865 117.659  0.00  0.00     0.382 C 
ATOM     23  O   LIG d   1     -10.982  81.567 116.620  0.00  0.00    -0.241 OA
ATOM     24  O   LIG d   1     -10.681  82.869 118.316  0.00  0.00    -0.241 OA
ENDBRANCH   3  22
TORSDOF 7
ENDMDL
MODEL 9
REMARK VINA RESULT:      -4.8      1.694      2.374
REMARK  7 active torsions:
REMARK  status: ('A' for Active; 'I' for Inactive)
REMARK    1  A    between atoms: C_2  and  C_3 
REMARK    2  A    between atoms: C_3  and  O_6 
REMARK    3  A    between atoms: C_3  and  C_4 
REMARK    4  A    between atoms: C_7  and  O_6 
REMARK    5  A    between atoms: C_9  and  C_10 
REMARK    6  A    between atoms: N_15  and  C_14 
REMARK    7  A    between atoms: N_20  and  C_19 
REMARK       I    between atoms: C_22  and  N_20 
ROOT
ATOM      1  C   LIG d   1       0.404  57.726 118.428  0.00  0.00     0.161 C 
ATOM      2  C   LIG d   1       0.411  58.719 117.435  0.00  0.00     0.016 C 
ATOM      3  C   LIG d   1      -0.627  58.881 116.489  0.00  0.00     0.038 C 
ATOM      4  C   LIG d   1      -1.822  58.150 116.568  0.00  0.00     0.028 C 
ATOM      5  C   LIG d   1      -1.660  56.794 117.245  0.00  0.00    -0.047 C 
ATOM      6  C   LIG d   1      -0.942  56.992 118.599  0.00  0.00     0.091 C 
ENDROOT
BRANCH   1   7
ATOM      7  O   LIG d   1       0.832  58.288 119.684  0.00  0.00    -0.368 OA
BRANCH   7   8
ATOM      8  C   LIG d   1       2.020  57.704 120.273  0.00  0.00     0.119 C 
BRANCH   8   9
ATOM      9  C   LIG d   1       2.926  58.863 120.732  0.00  0.00     0.028 C 
ATOM     10  C   LIG d   1       2.212  60.224 120.678  0.00  0.00     0.006 C 
ENDBRANCH   8   9
BRANCH   8  11
ATOM     11  C   LIG d   1       2.839  56.937 119.231  0.00  0.00     0.028 C 
ATOM     12  C   LIG d   1       3.635  55.772 119.838  0.00  0.00     0.006 C 
ENDBRANCH   8  11
ENDBRANCH   7   8
ENDBRANCH   1   7
BRANCH   6  13
ATOM     13  N   LIG d   1      -0.668  55.704 119.289  0.00  0.00    -0.311 N 
ATOM     14  C   LIG d   1      -0.023  54.689 118.717  0.00  0.00     0.210 C 
ATOM     15  C   LIG d   1       0.136  53.445 119.598  0.00  0.00     0.109 C 
ATOM     16  O   LIG d   1       0.461  54.712 117.575  0.00  0.00    -0.276 OA
ATOM     17  H   LIG d   1      -0.998  55.611 120.230  0.00  0.00     0.149 HD
ENDBRANCH   6  13
BRANCH   5  18
ATOM     18  N   LIG d   1      -3.003  56.201 117.383  0.00  0.00     0.381 N 
ATOM     19  H   LIG d   1      -2.981  55.465 118.061  0.00  0.00    -0.090 HD
ATOM     20  H   LIG d   1      -3.278  55.808 116.500  0.00  0.00    -0.090 HD
ATOM     21  H   LIG d   1      -3.657  56.899 117.662  0.00  0.00    -0.090 HD
ENDBRANCH   5  18
BRANCH   3  22
ATOM     22  C   LIG d   1      -0.458  59.754 115.425  0.00  0.00     0.382 C 
ATOM     23  O   LIG d   1       0.677  60.227 115.177  0.00  0.00    -0.241 OA
ATOM     24  O   LIG d   1      -1.434  60.109 114.738  0.00  0.00    -0.241 OA
ENDBRANCH   3  22
TORSDOF 7
ENDMDL
