MODEL 1
REMARK VINA RESULT:      -5.5      0.000      0.000
REMARK  7 active torsions:
REMARK  status: ('A' for Active; 'I' for Inactive)
REMARK    1  A    between atoms: C_2  and  C_3 
REMARK    2  A    between atoms: C_3  and  O_6 
REMARK    3  A    between atoms: C_3  and  C_4 
REMARK    4  A    between atoms: C_7  and  O_6 
REMARK    5  A    between atoms: C_9  and  C_10 
REMARK    6  A    between atoms: N_15  and  C_14 
REMARK    7  A    between atoms: N_20  and  C_19 
REMARK       I    between atoms: C_22  and  N_20 
ROOT
ATOM      1  C   LIG d   1      -7.593  75.063 117.760  0.00  0.00     0.161 C 
ATOM      2  C   LIG d   1      -8.789  75.791 117.877  0.00  0.00     0.016 C 
ATOM      3  C   LIG d   1      -8.842  77.203 117.901  0.00  0.00     0.038 C 
ATOM      4  C   LIG d   1      -7.707  77.992 117.656  0.00  0.00     0.028 C 
ATOM      5  C   LIG d   1      -6.400  77.306 118.036  0.00  0.00    -0.047 C 
ATOM      6  C   LIG d   1      -6.358  75.906 117.380  0.00  0.00     0.091 C 
ENDROOT
BRANCH   1   7
ATOM      7  O   LIG d   1      -7.769  73.982 116.824  0.00  0.00    -0.368 OA
BRANCH   7   8
ATOM      8  C   LIG d   1      -8.225  72.724 117.380  0.00  0.00     0.119 C 
BRANCH   8   9
ATOM      9  C   LIG d   1      -7.632  71.594 116.518  0.00  0.00     0.028 C 
ATOM     10  C   LIG d   1      -6.683  72.122 115.429  0.00  0.00     0.006 C 
ENDBRANCH   8   9
BRANCH   8  11
ATOM     11  C   LIG d   1      -9.745  72.577 117.252  0.00  0.00     0.028 C 
ATOM     12  C   LIG d   1     -10.161  71.264 116.571  0.00  0.00     0.006 C 
ENDBRANCH   8  11
ENDBRANCH   7   8
ENDBRANCH   1   7
BRANCH   6  13
ATOM     13  N   LIG d   1      -5.149  75.134 117.769  0.00  0.00    -0.311 N 
ATOM     14  C   LIG d   1      -4.231  74.722 116.897  0.00  0.00     0.210 C 
ATOM     15  C   LIG d   1      -3.074  73.923 117.506  0.00  0.00     0.109 C 
ATOM     16  O   LIG d   1      -4.247  74.970 115.682  0.00  0.00    -0.276 OA
ATOM     17  H   LIG d   1      -5.040  74.916 118.740  0.00  0.00     0.149 HD
ENDBRANCH   6  13
BRANCH   5  18
ATOM     18  N   LIG d   1      -5.295  78.181 117.601  0.00  0.00     0.381 N 
ATOM     19  H   LIG d   1      -5.513  79.133 117.815  0.00  0.00    -0.090 HD
ATOM     20  H   LIG d   1      -5.187  78.098 116.606  0.00  0.00    -0.090 HD
ATOM     21  H   LIG d   1      -4.450  77.915 118.058  0.00  0.00    -0.090 HD
ENDBRANCH   5  18
BRANCH   3  22
ATOM     22  C   LIG d   1     -10.033  77.842 118.212  0.00  0.00     0.382 C 
ATOM     23  O   LIG d   1     -10.101  79.094 118.176  0.00  0.00    -0.241 OA
ATOM     24  O   LIG d   1     -11.027  77.184 118.570  0.00  0.00    -0.241 OA
ENDBRANCH   3  22
TORSDOF 7
ENDMDL
MODEL 2
REMARK VINA RESULT:      -5.3      1.715      2.088
REMARK  7 active torsions:
REMARK  status: ('A' for Active; 'I' for Inactive)
REMARK    1  A    between atoms: C_2  and  C_3 
REMARK    2  A    between atoms: C_3  and  O_6 
REMARK    3  A    between atoms: C_3  and  C_4 
REMARK    4  A    between atoms: C_7  and  O_6 
REMARK    5  A    between atoms: C_9  and  C_10 
REMARK    6  A    between atoms: N_15  and  C_14 
REMARK    7  A    between atoms: N_20  and  C_19 
REMARK       I    between atoms: C_22  and  N_20 
ROOT
ATOM      1  C   LIG d   1      -7.177  76.287 117.541  0.00  0.00     0.161 C 
ATOM      2  C   LIG d   1      -8.481  76.528 118.004  0.00  0.00     0.016 C 
ATOM      3  C   LIG d   1      -8.988  77.822 118.264  0.00  0.00     0.038 C 
ATOM      4  C   LIG d   1      -8.270  78.980 117.933  0.00  0.00     0.028 C 
ATOM      5  C   LIG d   1      -6.758  78.777 117.937  0.00  0.00    -0.047 C 
ATOM      6  C   LIG d   1      -6.416  77.544 117.069  0.00  0.00     0.091 C 
ENDROOT
BRANCH   1   7
ATOM      7  O   LIG d   1      -7.204  75.296 116.496  0.00  0.00    -0.368 OA
BRANCH   7   8
ATOM      8  C   LIG d   1      -6.658  73.997 116.834  0.00  0.00     0.119 C 
BRANCH   8   9
ATOM      9  C   LIG d   1      -5.985  73.433 115.568  0.00  0.00     0.028 C 
ATOM     10  C   LIG d   1      -5.440  74.541 114.651  0.00  0.00     0.006 C 
ENDBRANCH   8   9
BRANCH   8  11
ATOM     11  C   LIG d   1      -7.768  73.000 117.182  0.00  0.00     0.028 C 
ATOM     12  C   LIG d   1      -7.739  71.744 116.296  0.00  0.00     0.006 C 
ENDBRANCH   8  11
ENDBRANCH   7   8
ENDBRANCH   1   7
BRANCH   6  13
ATOM     13  N   LIG d   1      -4.965  77.224 117.086  0.00  0.00    -0.311 N 
ATOM     14  C   LIG d   1      -4.104  77.674 116.175  0.00  0.00     0.210 C 
ATOM     15  C   LIG d   1      -2.657  77.208 116.366  0.00  0.00     0.109 C 
ATOM     16  O   LIG d   1      -4.396  78.439 115.243  0.00  0.00    -0.276 OA
ATOM     17  H   LIG d   1      -4.636  76.634 117.826  0.00  0.00     0.149 HD
ENDBRANCH   6  13
BRANCH   5  18
ATOM     18  N   LIG d   1      -6.140  80.022 117.442  0.00  0.00     0.381 N 
ATOM     19  H   LIG d   1      -5.769  79.874 116.524  0.00  0.00    -0.090 HD
ATOM     20  H   LIG d   1      -5.382  80.273 118.052  0.00  0.00    -0.090 HD
ATOM     21  H   LIG d   1      -6.816  80.753 117.421  0.00  0.00    -0.090 HD
ENDBRANCH   5  18
BRANCH   3  22
ATOM     22  C   LIG d   1     -10.213  77.965 118.899  0.00  0.00     0.382 C 
ATOM     23  O   LIG d   1     -10.364  78.849 119.776  0.00  0.00    -0.241 OA
ATOM     24  O   LIG d   1     -11.154  77.193 118.637  0.00  0.00    -0.241 OA
ENDBRANCH   3  22
TORSDOF 7
ENDMDL
MODEL 3
REMARK VINA RESULT:      -5.3     15.333     18.302
REMARK  7 active torsions:
REMARK  status: ('A' for Active; 'I' for Inactive)
REMARK    1  A    between atoms: C_2  and  C_3 
REMARK    2  A    between atoms: C_3  and  O_6 
REMARK    3  A    between atoms: C_3  and  C_4 
REMARK    4  A    between atoms: C_7  and  O_6 
REMARK    5  A    between atoms: C_9  and  C_10 
REMARK    6  A    between atoms: N_15  and  C_14 
REMARK    7  A    between atoms: N_20  and  C_19 
REMARK       I    between atoms: C_22  and  N_20 
ROOT
ATOM      1  C   LIG d   1      -5.829  92.936 117.176  0.00  0.00     0.161 C 
ATOM      2  C   LIG d   1      -6.998  92.319 116.701  0.00  0.00     0.016 C 
ATOM      3  C   LIG d   1      -7.009  91.055 116.068  0.00  0.00     0.038 C 
ATOM      4  C   LIG d   1      -5.863  90.248 116.004  0.00  0.00     0.028 C 
ATOM      5  C   LIG d   1      -4.561  91.043 116.020  0.00  0.00    -0.047 C 
ATOM      6  C   LIG d   1      -4.586  92.023 117.215  0.00  0.00     0.091 C 
ENDROOT
BRANCH   1   7
ATOM      7  O   LIG d   1      -6.072  93.506 118.478  0.00  0.00    -0.368 OA
BRANCH   7   8
ATOM      8  C   LIG d   1      -6.065  94.953 118.551  0.00  0.00     0.119 C 
BRANCH   8   9
ATOM      9  C   LIG d   1      -5.172  95.352 119.742  0.00  0.00     0.028 C 
ATOM     10  C   LIG d   1      -5.847  96.383 120.662  0.00  0.00     0.006 C 
ENDBRANCH   8   9
BRANCH   8  11
ATOM     11  C   LIG d   1      -7.456  95.501 118.885  0.00  0.00     0.028 C 
ATOM     12  C   LIG d   1      -8.154  96.133 117.671  0.00  0.00     0.006 C 
ENDBRANCH   8  11
ENDBRANCH   7   8
ENDBRANCH   1   7
BRANCH   6  13
ATOM     13  N   LIG d   1      -3.386  92.898 117.255  0.00  0.00    -0.311 N 
ATOM     14  C   LIG d   1      -2.612  93.034 118.331  0.00  0.00     0.210 C 
ATOM     15  C   LIG d   1      -1.437  94.002 118.164  0.00  0.00     0.109 C 
ATOM     16  O   LIG d   1      -2.769  92.419 119.396  0.00  0.00    -0.276 OA
ATOM     17  H   LIG d   1      -3.167  93.410 116.423  0.00  0.00     0.149 HD
ENDBRANCH   6  13
BRANCH   5  18
ATOM     18  N   LIG d   1      -3.449  90.076 116.087  0.00  0.00     0.381 N 
ATOM     19  H   LIG d   1      -3.352  89.736 117.023  0.00  0.00    -0.090 HD
ATOM     20  H   LIG d   1      -2.597  90.542 115.831  0.00  0.00    -0.090 HD
ATOM     21  H   LIG d   1      -3.620  89.316 115.466  0.00  0.00    -0.090 HD
ENDBRANCH   5  18
BRANCH   3  22
ATOM     22  C   LIG d   1      -8.168  90.602 115.456  0.00  0.00     0.382 C 
ATOM     23  O   LIG d   1      -8.614  89.461 115.726  0.00  0.00    -0.241 OA
ATOM     24  O   LIG d   1      -8.748  91.303 114.606  0.00  0.00    -0.241 OA
ENDBRANCH   3  22
TORSDOF 7
ENDMDL
MODEL 4
REMARK VINA RESULT:      -5.2     15.631     18.922
REMARK  7 active torsions:
REMARK  status: ('A' for Active; 'I' for Inactive)
REMARK    1  A    between atoms: C_2  and  C_3 
REMARK    2  A    between atoms: C_3  and  O_6 
REMARK    3  A    between atoms: C_3  and  C_4 
REMARK    4  A    between atoms: C_7  and  O_6 
REMARK    5  A    between atoms: C_9  and  C_10 
REMARK    6  A    between atoms: N_15  and  C_14 
REMARK    7  A    between atoms: N_20  and  C_19 
REMARK       I    between atoms: C_22  and  N_20 
ROOT
ATOM      1  C   LIG d   1      -5.952  93.077 118.365  0.00  0.00     0.161 C 
ATOM      2  C   LIG d   1      -4.793  93.650 118.915  0.00  0.00     0.016 C 
ATOM      3  C   LIG d   1      -3.485  93.227 118.586  0.00  0.00     0.038 C 
ATOM      4  C   LIG d   1      -3.241  92.298 117.564  0.00  0.00     0.028 C 
ATOM      5  C   LIG d   1      -4.397  91.329 117.337  0.00  0.00    -0.047 C 
ATOM      6  C   LIG d   1      -5.703  92.138 117.166  0.00  0.00     0.091 C 
ENDROOT
BRANCH   1   7
ATOM      7  O   LIG d   1      -6.886  94.114 118.004  0.00  0.00    -0.368 OA
BRANCH   7   8
ATOM      8  C   LIG d   1      -6.779  95.354 118.746  0.00  0.00     0.119 C 
BRANCH   8   9
ATOM      9  C   LIG d   1      -7.693  95.235 119.981  0.00  0.00     0.028 C 
ATOM     10  C   LIG d   1      -7.030  95.780 121.257  0.00  0.00     0.006 C 
ENDBRANCH   8   9
BRANCH   8  11
ATOM     11  C   LIG d   1      -7.334  96.533 117.942  0.00  0.00     0.028 C 
ATOM     12  C   LIG d   1      -8.865  96.494 117.806  0.00  0.00     0.006 C 
ENDBRANCH   8  11
ENDBRANCH   7   8
ENDBRANCH   1   7
BRANCH   6  13
ATOM     13  N   LIG d   1      -6.896  91.264 117.024  0.00  0.00    -0.311 N 
ATOM     14  C   LIG d   1      -7.366  90.850 115.849  0.00  0.00     0.210 C 
ATOM     15  C   LIG d   1      -8.619  89.972 115.926  0.00  0.00     0.109 C 
ATOM     16  O   LIG d   1      -6.846  91.101 114.751  0.00  0.00    -0.276 OA
ATOM     17  H   LIG d   1      -7.362  90.987 117.866  0.00  0.00     0.149 HD
ENDBRANCH   6  13
BRANCH   5  18
ATOM     18  N   LIG d   1      -4.066  90.509 116.157  0.00  0.00     0.381 N 
ATOM     19  H   LIG d   1      -3.073  90.424 116.071  0.00  0.00    -0.090 HD
ATOM     20  H   LIG d   1      -4.416  90.967 115.334  0.00  0.00    -0.090 HD
ATOM     21  H   LIG d   1      -4.478  89.606 116.243  0.00  0.00    -0.090 HD
ENDBRANCH   5  18
BRANCH   3  22
ATOM     22  C   LIG d   1      -2.405  93.707 119.311  0.00  0.00     0.382 C 
ATOM     23  O   LIG d   1      -2.310  94.934 119.557  0.00  0.00    -0.241 OA
ATOM     24  O   LIG d   1      -1.501  92.935 119.684  0.00  0.00    -0.241 OA
ENDBRANCH   3  22
TORSDOF 7
ENDMDL
MODEL 5
REMARK VINA RESULT:      -5.2      3.068      5.232
REMARK  7 active torsions:
REMARK  status: ('A' for Active; 'I' for Inactive)
REMARK    1  A    between atoms: C_2  and  C_3 
REMARK    2  A    between atoms: C_3  and  O_6 
REMARK    3  A    between atoms: C_3  and  C_4 
REMARK    4  A    between atoms: C_7  and  O_6 
REMARK    5  A    between atoms: C_9  and  C_10 
REMARK    6  A    between atoms: N_15  and  C_14 
REMARK    7  A    between atoms: N_20  and  C_19 
REMARK       I    between atoms: C_22  and  N_20 
ROOT
ATOM      1  C   LIG d   1      -3.858  75.492 117.186  0.00  0.00     0.161 C 
ATOM      2  C   LIG d   1      -4.120  76.247 116.030  0.00  0.00     0.016 C 
ATOM      3  C   LIG d   1      -3.121  76.626 115.105  0.00  0.00     0.038 C 
ATOM      4  C   LIG d   1      -1.806  76.144 115.195  0.00  0.00     0.028 C 
ATOM      5  C   LIG d   1      -1.385  75.794 116.618  0.00  0.00    -0.047 C 
ATOM      6  C   LIG d   1      -2.450  74.863 117.242  0.00  0.00     0.091 C 
ENDROOT
BRANCH   1   7
ATOM      7  O   LIG d   1      -4.868  74.476 117.345  0.00  0.00    -0.368 OA
BRANCH   7   8
ATOM      8  C   LIG d   1      -6.054  74.622 116.526  0.00  0.00     0.119 C 
BRANCH   8   9
ATOM      9  C   LIG d   1      -7.268  74.675 117.475  0.00  0.00     0.028 C 
ATOM     10  C   LIG d   1      -7.957  76.050 117.469  0.00  0.00     0.006 C 
ENDBRANCH   8   9
BRANCH   8  11
ATOM     11  C   LIG d   1      -6.280  73.389 115.647  0.00  0.00     0.028 C 
ATOM     12  C   LIG d   1      -7.261  72.383 116.271  0.00  0.00     0.006 C 
ENDBRANCH   8  11
ENDBRANCH   7   8
ENDBRANCH   1   7
BRANCH   6  13
ATOM     13  N   LIG d   1      -2.158  74.541 118.663  0.00  0.00    -0.311 N 
ATOM     14  C   LIG d   1      -1.454  73.476 119.043  0.00  0.00     0.210 C 
ATOM     15  C   LIG d   1      -1.287  73.319 120.558  0.00  0.00     0.109 C 
ATOM     16  O   LIG d   1      -0.925  72.665 118.269  0.00  0.00    -0.276 OA
ATOM     17  H   LIG d   1      -2.524  75.163 119.357  0.00  0.00     0.149 HD
ENDBRANCH   6  13
BRANCH   5  18
ATOM     18  N   LIG d   1      -0.048  75.176 116.548  0.00  0.00     0.381 N 
ATOM     19  H   LIG d   1       0.044  74.663 115.694  0.00  0.00    -0.090 HD
ATOM     20  H   LIG d   1       0.054  74.534 117.314  0.00  0.00    -0.090 HD
ATOM     21  H   LIG d   1       0.656  75.879 116.599  0.00  0.00    -0.090 HD
ENDBRANCH   5  18
BRANCH   3  22
ATOM     22  C   LIG d   1      -3.424  77.529 114.097  0.00  0.00     0.382 C 
ATOM     23  O   LIG d   1      -3.170  78.748 114.251  0.00  0.00    -0.241 OA
ATOM     24  O   LIG d   1      -3.988  77.147 113.055  0.00  0.00    -0.241 OA
ENDBRANCH   3  22
TORSDOF 7
ENDMDL
MODEL 6
REMARK VINA RESULT:      -5.1      2.100      3.501
REMARK  7 active torsions:
REMARK  status: ('A' for Active; 'I' for Inactive)
REMARK    1  A    between atoms: C_2  and  C_3 
REMARK    2  A    between atoms: C_3  and  O_6 
REMARK    3  A    between atoms: C_3  and  C_4 
REMARK    4  A    between atoms: C_7  and  O_6 
REMARK    5  A    between atoms: C_9  and  C_10 
REMARK    6  A    between atoms: N_15  and  C_14 
REMARK    7  A    between atoms: N_20  and  C_19 
REMARK       I    between atoms: C_22  and  N_20 
ROOT
ATOM      1  C   LIG d   1      -6.278  76.890 116.832  0.00  0.00     0.161 C 
ATOM      2  C   LIG d   1      -7.643  76.658 117.071  0.00  0.00     0.016 C 
ATOM      3  C   LIG d   1      -8.508  77.621 117.640  0.00  0.00     0.038 C 
ATOM      4  C   LIG d   1      -8.097  78.942 117.869  0.00  0.00     0.028 C 
ATOM      5  C   LIG d   1      -6.598  79.078 118.112  0.00  0.00    -0.047 C 
ATOM      6  C   LIG d   1      -5.838  78.362 116.972  0.00  0.00     0.091 C 
ENDROOT
BRANCH   1   7
ATOM      7  O   LIG d   1      -5.917  76.380 115.533  0.00  0.00    -0.368 OA
BRANCH   7   8
ATOM      8  C   LIG d   1      -5.011  75.250 115.521  0.00  0.00     0.119 C 
BRANCH   8   9
ATOM      9  C   LIG d   1      -5.766  74.058 114.900  0.00  0.00     0.028 C 
ATOM     10  C   LIG d   1      -6.489  73.207 115.957  0.00  0.00     0.006 C 
ENDBRANCH   8   9
BRANCH   8  11
ATOM     11  C   LIG d   1      -4.653  74.807 116.943  0.00  0.00     0.028 C 
ATOM     12  C   LIG d   1      -3.145  74.885 117.229  0.00  0.00     0.006 C 
ENDBRANCH   8  11
ENDBRANCH   7   8
ENDBRANCH   1   7
BRANCH   6  13
ATOM     13  N   LIG d   1      -4.366  78.374 117.178  0.00  0.00    -0.311 N 
ATOM     14  C   LIG d   1      -3.495  78.698 116.223  0.00  0.00     0.210 C 
ATOM     15  C   LIG d   1      -2.023  78.626 116.640  0.00  0.00     0.109 C 
ATOM     16  O   LIG d   1      -3.804  79.070 115.081  0.00  0.00    -0.276 OA
ATOM     17  H   LIG d   1      -4.030  78.115 118.085  0.00  0.00     0.149 HD
ENDBRANCH   6  13
BRANCH   5  18
ATOM     18  N   LIG d   1      -6.288  80.517 118.199  0.00  0.00     0.381 N 
ATOM     19  H   LIG d   1      -6.024  80.751 119.135  0.00  0.00    -0.090 HD
ATOM     20  H   LIG d   1      -7.113  81.042 117.964  0.00  0.00    -0.090 HD
ATOM     21  H   LIG d   1      -5.550  80.746 117.570  0.00  0.00    -0.090 HD
ENDBRANCH   5  18
BRANCH   3  22
ATOM     22  C   LIG d   1      -9.789  77.253 118.022  0.00  0.00     0.382 C 
ATOM     23  O   LIG d   1     -10.218  76.105 117.755  0.00  0.00    -0.241 OA
ATOM     24  O   LIG d   1     -10.537  78.070 118.591  0.00  0.00    -0.241 OA
ENDBRANCH   3  22
TORSDOF 7
ENDMDL
MODEL 7
REMARK VINA RESULT:      -5.1     15.729     18.035
REMARK  7 active torsions:
REMARK  status: ('A' for Active; 'I' for Inactive)
REMARK    1  A    between atoms: C_2  and  C_3 
REMARK    2  A    between atoms: C_3  and  O_6 
REMARK    3  A    between atoms: C_3  and  C_4 
REMARK    4  A    between atoms: C_7  and  O_6 
REMARK    5  A    between atoms: C_9  and  C_10 
REMARK    6  A    between atoms: N_15  and  C_14 
REMARK    7  A    between atoms: N_20  and  C_19 
REMARK       I    between atoms: C_22  and  N_20 
ROOT
ATOM      1  C   LIG d   1      -3.932  91.803 118.074  0.00  0.00     0.161 C 
ATOM      2  C   LIG d   1      -4.249  90.950 117.004  0.00  0.00     0.016 C 
ATOM      3  C   LIG d   1      -5.346  91.164 116.137  0.00  0.00     0.038 C 
ATOM      4  C   LIG d   1      -6.116  92.336 116.191  0.00  0.00     0.028 C 
ATOM      5  C   LIG d   1      -6.144  92.979 117.574  0.00  0.00    -0.047 C 
ATOM      6  C   LIG d   1      -4.693  93.145 118.080  0.00  0.00     0.091 C 
ENDROOT
BRANCH   1   7
ATOM      7  O   LIG d   1      -2.510  92.034 118.110  0.00  0.00    -0.368 OA
BRANCH   7   8
ATOM      8  C   LIG d   1      -1.737  91.128 118.936  0.00  0.00     0.119 C 
BRANCH   8   9
ATOM      9  C   LIG d   1      -1.332  91.895 120.210  0.00  0.00     0.028 C 
ATOM     10  C   LIG d   1      -0.631  93.227 119.895  0.00  0.00     0.006 C 
ENDBRANCH   8   9
BRANCH   8  11
ATOM     11  C   LIG d   1      -0.419  90.743 118.258  0.00  0.00     0.028 C 
ATOM     12  C   LIG d   1      -0.586  89.614 117.229  0.00  0.00     0.006 C 
ENDBRANCH   8  11
ENDBRANCH   7   8
ENDBRANCH   1   7
BRANCH   6  13
ATOM     13  N   LIG d   1      -4.634  93.689 119.462  0.00  0.00    -0.311 N 
ATOM     14  C   LIG d   1      -3.950  94.784 119.789  0.00  0.00     0.210 C 
ATOM     15  C   LIG d   1      -4.006  95.161 121.273  0.00  0.00     0.109 C 
ATOM     16  O   LIG d   1      -3.330  95.497 118.987  0.00  0.00    -0.276 OA
ATOM     17  H   LIG d   1      -5.135  93.190 120.171  0.00  0.00     0.149 HD
ENDBRANCH   6  13
BRANCH   5  18
ATOM     18  N   LIG d   1      -6.865  94.260 117.454  0.00  0.00     0.381 N 
ATOM     19  H   LIG d   1      -6.236  95.020 117.621  0.00  0.00    -0.090 HD
ATOM     20  H   LIG d   1      -7.589  94.292 118.151  0.00  0.00    -0.090 HD
ATOM     21  H   LIG d   1      -7.265  94.343 116.545  0.00  0.00    -0.090 HD
ENDBRANCH   5  18
BRANCH   3  22
ATOM     22  C   LIG d   1      -5.706  90.180 115.229  0.00  0.00     0.382 C 
ATOM     23  O   LIG d   1      -6.893  90.100 114.830  0.00  0.00    -0.241 OA
ATOM     24  O   LIG d   1      -4.870  89.344 114.838  0.00  0.00    -0.241 OA
ENDBRANCH   3  22
TORSDOF 7
ENDMDL
MODEL 8
REMARK VINA RESULT:      -5.0      3.498      6.377
REMARK  7 active torsions:
REMARK  status: ('A' for Active; 'I' for Inactive)
REMARK    1  A    between atoms: C_2  and  C_3 
REMARK    2  A    between atoms: C_3  and  O_6 
REMARK    3  A    between atoms: C_3  and  C_4 
REMARK    4  A    between atoms: C_7  and  O_6 
REMARK    5  A    between atoms: C_9  and  C_10 
REMARK    6  A    between atoms: N_15  and  C_14 
REMARK    7  A    between atoms: N_20  and  C_19 
REMARK       I    between atoms: C_22  and  N_20 
ROOT
ATOM      1  C   LIG d   1      -3.426  75.006 116.905  0.00  0.00     0.161 C 
ATOM      2  C   LIG d   1      -3.099  74.172 117.987  0.00  0.00     0.016 C 
ATOM      3  C   LIG d   1      -1.771  73.915 118.398  0.00  0.00     0.038 C 
ATOM      4  C   LIG d   1      -0.678  74.599 117.846  0.00  0.00     0.028 C 
ATOM      5  C   LIG d   1      -0.919  75.070 116.415  0.00  0.00    -0.047 C 
ATOM      6  C   LIG d   1      -2.253  75.849 116.361  0.00  0.00     0.091 C 
ENDROOT
BRANCH   1   7
ATOM      7  O   LIG d   1      -4.532  75.859 117.262  0.00  0.00    -0.368 OA
BRANCH   7   8
ATOM      8  C   LIG d   1      -5.789  75.584 116.598  0.00  0.00     0.119 C 
BRANCH   8   9
ATOM      9  C   LIG d   1      -5.586  74.331 115.724  0.00  0.00     0.028 C 
ATOM     10  C   LIG d   1      -6.551  73.193 116.096  0.00  0.00     0.006 C 
ENDBRANCH   8   9
BRANCH   8  11
ATOM     11  C   LIG d   1      -6.160  76.704 115.621  0.00  0.00     0.028 C 
ATOM     12  C   LIG d   1      -6.089  76.261 114.151  0.00  0.00     0.006 C 
ENDBRANCH   8  11
ENDBRANCH   7   8
ENDBRANCH   1   7
BRANCH   6  13
ATOM     13  N   LIG d   1      -2.606  76.273 114.981  0.00  0.00    -0.311 N 
ATOM     14  C   LIG d   1      -2.336  77.483 114.494  0.00  0.00     0.210 C 
ATOM     15  C   LIG d   1      -2.803  77.720 113.055  0.00  0.00     0.109 C 
ATOM     16  O   LIG d   1      -1.724  78.371 115.107  0.00  0.00    -0.276 OA
ATOM     17  H   LIG d   1      -3.077  75.603 114.405  0.00  0.00     0.149 HD
ENDBRANCH   6  13
BRANCH   5  18
ATOM     18  N   LIG d   1       0.243  75.885 116.013  0.00  0.00     0.381 N 
ATOM     19  H   LIG d   1       1.083  75.352 116.115  0.00  0.00    -0.090 HD
ATOM     20  H   LIG d   1       0.303  76.686 116.617  0.00  0.00    -0.090 HD
ATOM     21  H   LIG d   1       0.141  76.181 115.067  0.00  0.00    -0.090 HD
ENDBRANCH   5  18
BRANCH   3  22
ATOM     22  C   LIG d   1      -1.523  72.934 119.346  0.00  0.00     0.382 C 
ATOM     23  O   LIG d   1      -1.368  73.250 120.550  0.00  0.00    -0.241 OA
ATOM     24  O   LIG d   1      -1.407  71.741 119.006  0.00  0.00    -0.241 OA
ENDBRANCH   3  22
TORSDOF 7
ENDMDL
MODEL 9
REMARK VINA RESULT:      -5.0     16.271     19.668
REMARK  7 active torsions:
REMARK  status: ('A' for Active; 'I' for Inactive)
REMARK    1  A    between atoms: C_2  and  C_3 
REMARK    2  A    between atoms: C_3  and  O_6 
REMARK    3  A    between atoms: C_3  and  C_4 
REMARK    4  A    between atoms: C_7  and  O_6 
REMARK    5  A    between atoms: C_9  and  C_10 
REMARK    6  A    between atoms: N_15  and  C_14 
REMARK    7  A    between atoms: N_20  and  C_19 
REMARK       I    between atoms: C_22  and  N_20 
ROOT
ATOM      1  C   LIG d   1      -4.711  93.203 119.506  0.00  0.00     0.161 C 
ATOM      2  C   LIG d   1      -3.808  92.225 119.056  0.00  0.00     0.016 C 
ATOM      3  C   LIG d   1      -3.943  91.551 117.821  0.00  0.00     0.038 C 
ATOM      4  C   LIG d   1      -4.914  91.919 116.878  0.00  0.00     0.028 C 
ATOM      5  C   LIG d   1      -6.153  92.553 117.500  0.00  0.00    -0.047 C 
ATOM      6  C   LIG d   1      -5.713  93.696 118.442  0.00  0.00     0.091 C 
ENDROOT
BRANCH   1   7
ATOM      7  O   LIG d   1      -3.987  94.316 120.067  0.00  0.00    -0.368 OA
BRANCH   7   8
ATOM      8  C   LIG d   1      -3.530  95.318 119.126  0.00  0.00     0.119 C 
BRANCH   8   9
ATOM      9  C   LIG d   1      -1.990  95.262 119.101  0.00  0.00     0.028 C 
ATOM     10  C   LIG d   1      -1.440  94.856 117.723  0.00  0.00     0.006 C 
ENDBRANCH   8   9
BRANCH   8  11
ATOM     11  C   LIG d   1      -3.876  96.731 119.604  0.00  0.00     0.028 C 
ATOM     12  C   LIG d   1      -4.089  97.717 118.445  0.00  0.00     0.006 C 
ENDBRANCH   8  11
ENDBRANCH   7   8
ENDBRANCH   1   7
BRANCH   6  13
ATOM     13  N   LIG d   1      -6.860  94.315 119.156  0.00  0.00    -0.311 N 
ATOM     14  C   LIG d   1      -7.462  95.431 118.748  0.00  0.00     0.210 C 
ATOM     15  C   LIG d   1      -8.611  95.910 119.642  0.00  0.00     0.109 C 
ATOM     16  O   LIG d   1      -7.175  96.052 117.714  0.00  0.00    -0.276 OA
ATOM     17  H   LIG d   1      -7.178  93.860 119.989  0.00  0.00     0.149 HD
ENDBRANCH   6  13
BRANCH   5  18
ATOM     18  N   LIG d   1      -7.019  93.012 116.398  0.00  0.00     0.381 N 
ATOM     19  H   LIG d   1      -7.349  92.225 115.875  0.00  0.00    -0.090 HD
ATOM     20  H   LIG d   1      -6.481  93.596 115.783  0.00  0.00    -0.090 HD
ATOM     21  H   LIG d   1      -7.792  93.525 116.763  0.00  0.00    -0.090 HD
ENDBRANCH   5  18
BRANCH   3  22
ATOM     22  C   LIG d   1      -3.125  90.468 117.536  0.00  0.00     0.382 C 
ATOM     23  O   LIG d   1      -1.996  90.376 118.077  0.00  0.00    -0.241 OA
ATOM     24  O   LIG d   1      -3.483  89.605 116.712  0.00  0.00    -0.241 OA
ENDBRANCH   3  22
TORSDOF 7
ENDMDL
