MODEL 1
REMARK VINA RESULT:      -5.7      0.000      0.000
REMARK  7 active torsions:
REMARK  status: ('A' for Active; 'I' for Inactive)
REMARK    1  A    between atoms: C_2  and  C_3 
REMARK    2  A    between atoms: C_3  and  O_6 
REMARK    3  A    between atoms: C_3  and  C_4 
REMARK    4  A    between atoms: C_7  and  O_6 
REMARK    5  A    between atoms: C_9  and  C_10 
REMARK    6  A    between atoms: N_15  and  C_14 
REMARK    7  A    between atoms: N_20  and  C_19 
REMARK       I    between atoms: C_22  and  N_20 
ROOT
ATOM      1  C   LIG d   1      -7.616  75.640 117.826  0.00  0.00     0.161 C 
ATOM      2  C   LIG d   1      -8.993  75.671 118.100  0.00  0.00     0.016 C 
ATOM      3  C   LIG d   1      -9.694  76.853 118.435  0.00  0.00     0.038 C 
ATOM      4  C   LIG d   1      -9.089  78.117 118.370  0.00  0.00     0.028 C 
ATOM      5  C   LIG d   1      -7.580  78.078 118.590  0.00  0.00    -0.047 C 
ATOM      6  C   LIG d   1      -6.962  77.025 117.642  0.00  0.00     0.091 C 
ENDROOT
BRANCH   1   7
ATOM      7  O   LIG d   1      -7.365  74.811 116.674  0.00  0.00    -0.368 OA
BRANCH   7   8
ATOM      8  C   LIG d   1      -7.067  73.419 116.943  0.00  0.00     0.119 C 
BRANCH   8   9
ATOM      9  C   LIG d   1      -6.222  72.891 115.768  0.00  0.00     0.028 C 
ATOM     10  C   LIG d   1      -5.532  74.021 114.987  0.00  0.00     0.006 C 
ENDBRANCH   8   9
BRANCH   8  11
ATOM     11  C   LIG d   1      -8.340  72.566 116.943  0.00  0.00     0.028 C 
ATOM     12  C   LIG d   1      -8.046  71.058 116.903  0.00  0.00     0.006 C 
ENDBRANCH   8  11
ENDBRANCH   7   8
ENDBRANCH   1   7
BRANCH   6  13
ATOM     13  N   LIG d   1      -5.499  76.864 117.851  0.00  0.00    -0.311 N 
ATOM     14  C   LIG d   1      -4.596  77.045 116.889  0.00  0.00     0.210 C 
ATOM     15  C   LIG d   1      -3.143  76.807 117.312  0.00  0.00     0.109 C 
ATOM     16  O   LIG d   1      -4.858  77.411 115.733  0.00  0.00    -0.276 OA
ATOM     17  H   LIG d   1      -5.196  76.598 118.768  0.00  0.00     0.149 HD
ENDBRANCH   6  13
BRANCH   5  18
ATOM     18  N   LIG d   1      -7.061  79.440 118.360  0.00  0.00     0.381 N 
ATOM     19  H   LIG d   1      -7.423  79.799 117.499  0.00  0.00    -0.090 HD
ATOM     20  H   LIG d   1      -6.060  79.398 118.287  0.00  0.00    -0.090 HD
ATOM     21  H   LIG d   1      -7.322  80.036 119.113  0.00  0.00    -0.090 HD
ENDBRANCH   5  18
BRANCH   3  22
ATOM     22  C   LIG d   1     -11.005  76.772 118.879  0.00  0.00     0.382 C 
ATOM     23  O   LIG d   1     -11.278  77.023 120.077  0.00  0.00    -0.241 OA
ATOM     24  O   LIG d   1     -11.912  76.408 118.106  0.00  0.00    -0.241 OA
ENDBRANCH   3  22
TORSDOF 7
ENDMDL
MODEL 2
REMARK VINA RESULT:      -5.4     15.442     18.019
REMARK  7 active torsions:
REMARK  status: ('A' for Active; 'I' for Inactive)
REMARK    1  A    between atoms: C_2  and  C_3 
REMARK    2  A    between atoms: C_3  and  O_6 
REMARK    3  A    between atoms: C_3  and  C_4 
REMARK    4  A    between atoms: C_7  and  O_6 
REMARK    5  A    between atoms: C_9  and  C_10 
REMARK    6  A    between atoms: N_15  and  C_14 
REMARK    7  A    between atoms: N_20  and  C_19 
REMARK       I    between atoms: C_22  and  N_20 
ROOT
ATOM      1  C   LIG d   1      -5.944  93.177 118.021  0.00  0.00     0.161 C 
ATOM      2  C   LIG d   1      -6.714  92.368 117.169  0.00  0.00     0.016 C 
ATOM      3  C   LIG d   1      -6.159  91.386 116.317  0.00  0.00     0.038 C 
ATOM      4  C   LIG d   1      -4.801  91.039 116.372  0.00  0.00     0.028 C 
ATOM      5  C   LIG d   1      -3.904  92.175 116.853  0.00  0.00    -0.047 C 
ATOM      6  C   LIG d   1      -4.473  92.737 118.176  0.00  0.00     0.091 C 
ENDROOT
BRANCH   1   7
ATOM      7  O   LIG d   1      -6.577  93.268 119.313  0.00  0.00    -0.368 OA
BRANCH   7   8
ATOM      8  C   LIG d   1      -7.166  94.550 119.645  0.00  0.00     0.119 C 
BRANCH   8   9
ATOM      9  C   LIG d   1      -8.695  94.403 119.520  0.00  0.00     0.028 C 
ATOM     10  C   LIG d   1      -9.426  94.747 120.829  0.00  0.00     0.006 C 
ENDBRANCH   8   9
BRANCH   8  11
ATOM     11  C   LIG d   1      -6.777  95.623 118.624  0.00  0.00     0.028 C 
ATOM     12  C   LIG d   1      -5.865  96.708 119.218  0.00  0.00     0.006 C 
ENDBRANCH   8  11
ENDBRANCH   7   8
ENDBRANCH   1   7
BRANCH   6  13
ATOM     13  N   LIG d   1      -3.703  93.908 118.672  0.00  0.00    -0.311 N 
ATOM     14  C   LIG d   1      -2.718  93.813 119.563  0.00  0.00     0.210 C 
ATOM     15  C   LIG d   1      -2.069  95.144 119.953  0.00  0.00     0.109 C 
ATOM     16  O   LIG d   1      -2.299  92.749 120.044  0.00  0.00    -0.276 OA
ATOM     17  H   LIG d   1      -3.956  94.806 118.310  0.00  0.00     0.149 HD
ENDBRANCH   6  13
BRANCH   5  18
ATOM     18  N   LIG d   1      -2.538  91.636 116.993  0.00  0.00     0.381 N 
ATOM     19  H   LIG d   1      -2.091  91.611 116.098  0.00  0.00    -0.090 HD
ATOM     20  H   LIG d   1      -2.594  90.696 117.344  0.00  0.00    -0.090 HD
ATOM     21  H   LIG d   1      -2.011  92.203 117.620  0.00  0.00    -0.090 HD
ENDBRANCH   5  18
BRANCH   3  22
ATOM     22  C   LIG d   1      -6.960  90.766 115.370  0.00  0.00     0.382 C 
ATOM     23  O   LIG d   1      -6.993  91.203 114.194  0.00  0.00    -0.241 OA
ATOM     24  O   LIG d   1      -7.683  89.803 115.687  0.00  0.00    -0.241 OA
ENDBRANCH   3  22
TORSDOF 7
ENDMDL
MODEL 3
REMARK VINA RESULT:      -5.4     11.898     14.525
REMARK  7 active torsions:
REMARK  status: ('A' for Active; 'I' for Inactive)
REMARK    1  A    between atoms: C_2  and  C_3 
REMARK    2  A    between atoms: C_3  and  O_6 
REMARK    3  A    between atoms: C_3  and  C_4 
REMARK    4  A    between atoms: C_7  and  O_6 
REMARK    5  A    between atoms: C_9  and  C_10 
REMARK    6  A    between atoms: N_15  and  C_14 
REMARK    7  A    between atoms: N_20  and  C_19 
REMARK       I    between atoms: C_22  and  N_20 
ROOT
ATOM      1  C   LIG d   1     -16.019  64.839 115.565  0.00  0.00     0.161 C 
ATOM      2  C   LIG d   1     -16.935  64.673 114.513  0.00  0.00     0.016 C 
ATOM      3  C   LIG d   1     -18.332  64.572 114.707  0.00  0.00     0.038 C 
ATOM      4  C   LIG d   1     -18.924  64.784 115.962  0.00  0.00     0.028 C 
ATOM      5  C   LIG d   1     -18.001  64.453 117.130  0.00  0.00    -0.047 C 
ATOM      6  C   LIG d   1     -16.654  65.184 116.928  0.00  0.00     0.091 C 
ENDROOT
BRANCH   1   7
ATOM      7  O   LIG d   1     -15.037  65.831 115.204  0.00  0.00    -0.368 OA
BRANCH   7   8
ATOM      8  C   LIG d   1     -15.554  67.124 114.806  0.00  0.00     0.119 C 
BRANCH   8   9
ATOM      9  C   LIG d   1     -15.132  67.362 113.343  0.00  0.00     0.028 C 
ATOM     10  C   LIG d   1     -14.818  68.839 113.055  0.00  0.00     0.006 C 
ENDBRANCH   8   9
BRANCH   8  11
ATOM     11  C   LIG d   1     -14.900  68.256 115.605  0.00  0.00     0.028 C 
ATOM     12  C   LIG d   1     -15.804  68.795 116.725  0.00  0.00     0.006 C 
ENDBRANCH   8  11
ENDBRANCH   7   8
ENDBRANCH   1   7
BRANCH   6  13
ATOM     13  N   LIG d   1     -15.663  64.848 117.983  0.00  0.00    -0.311 N 
ATOM     14  C   LIG d   1     -15.526  65.547 119.109  0.00  0.00     0.210 C 
ATOM     15  C   LIG d   1     -14.431  65.042 120.054  0.00  0.00     0.109 C 
ATOM     16  O   LIG d   1     -16.228  66.517 119.429  0.00  0.00    -0.276 OA
ATOM     17  H   LIG d   1     -15.073  64.056 117.820  0.00  0.00     0.149 HD
ENDBRANCH   6  13
BRANCH   5  18
ATOM     18  N   LIG d   1     -18.693  64.850 118.371  0.00  0.00     0.381 N 
ATOM     19  H   LIG d   1     -19.561  65.296 118.147  0.00  0.00    -0.090 HD
ATOM     20  H   LIG d   1     -18.119  65.509 118.867  0.00  0.00    -0.090 HD
ATOM     21  H   LIG d   1     -18.860  64.049 118.939  0.00  0.00    -0.090 HD
ENDBRANCH   5  18
BRANCH   3  22
ATOM     22  C   LIG d   1     -19.150  64.217 113.645  0.00  0.00     0.382 C 
ATOM     23  O   LIG d   1     -18.989  63.112 113.073  0.00  0.00    -0.241 OA
ATOM     24  O   LIG d   1     -20.017  65.005 113.225  0.00  0.00    -0.241 OA
ENDBRANCH   3  22
TORSDOF 7
ENDMDL
MODEL 4
REMARK VINA RESULT:      -5.3      4.113      6.849
REMARK  7 active torsions:
REMARK  status: ('A' for Active; 'I' for Inactive)
REMARK    1  A    between atoms: C_2  and  C_3 
REMARK    2  A    between atoms: C_3  and  O_6 
REMARK    3  A    between atoms: C_3  and  C_4 
REMARK    4  A    between atoms: C_7  and  O_6 
REMARK    5  A    between atoms: C_9  and  C_10 
REMARK    6  A    between atoms: N_15  and  C_14 
REMARK    7  A    between atoms: N_20  and  C_19 
REMARK       I    between atoms: C_22  and  N_20 
ROOT
ATOM      1  C   LIG d   1      -3.159  76.042 115.481  0.00  0.00     0.161 C 
ATOM      2  C   LIG d   1      -3.222  77.115 114.576  0.00  0.00     0.016 C 
ATOM      3  C   LIG d   1      -2.093  77.871 114.186  0.00  0.00     0.038 C 
ATOM      4  C   LIG d   1      -0.791  77.507 114.562  0.00  0.00     0.028 C 
ATOM      5  C   LIG d   1      -0.733  76.739 115.878  0.00  0.00    -0.047 C 
ATOM      6  C   LIG d   1      -1.732  75.561 115.815  0.00  0.00     0.091 C 
ENDROOT
BRANCH   1   7
ATOM      7  O   LIG d   1      -3.957  74.945 114.995  0.00  0.00    -0.368 OA
BRANCH   7   8
ATOM      8  C   LIG d   1      -5.040  74.514 115.855  0.00  0.00     0.119 C 
BRANCH   8   9
ATOM      9  C   LIG d   1      -5.778  73.370 115.133  0.00  0.00     0.028 C 
ATOM     10  C   LIG d   1      -6.682  72.564 116.081  0.00  0.00     0.006 C 
ENDBRANCH   8   9
BRANCH   8  11
ATOM     11  C   LIG d   1      -6.084  75.620 116.033  0.00  0.00     0.028 C 
ATOM     12  C   LIG d   1      -6.284  76.020 117.504  0.00  0.00     0.006 C 
ENDBRANCH   8  11
ENDBRANCH   7   8
ENDBRANCH   1   7
BRANCH   6  13
ATOM     13  N   LIG d   1      -1.799  74.807 117.094  0.00  0.00    -0.311 N 
ATOM     14  C   LIG d   1      -1.295  73.585 117.252  0.00  0.00     0.210 C 
ATOM     15  C   LIG d   1      -1.490  72.979 118.646  0.00  0.00     0.109 C 
ATOM     16  O   LIG d   1      -0.676  72.957 116.380  0.00  0.00    -0.276 OA
ATOM     17  H   LIG d   1      -2.257  75.254 117.864  0.00  0.00     0.149 HD
ENDBRANCH   6  13
BRANCH   5  18
ATOM     18  N   LIG d   1       0.662  76.304 116.079  0.00  0.00     0.381 N 
ATOM     19  H   LIG d   1       1.269  76.827 115.480  0.00  0.00    -0.090 HD
ATOM     20  H   LIG d   1       0.738  75.332 115.834  0.00  0.00    -0.090 HD
ATOM     21  H   LIG d   1       0.927  76.437 117.030  0.00  0.00    -0.090 HD
ENDBRANCH   5  18
BRANCH   3  22
ATOM     22  C   LIG d   1      -2.265  79.029 113.443  0.00  0.00     0.382 C 
ATOM     23  O   LIG d   1      -1.281  79.767 113.196  0.00  0.00    -0.241 OA
ATOM     24  O   LIG d   1      -3.399  79.368 113.055  0.00  0.00    -0.241 OA
ENDBRANCH   3  22
TORSDOF 7
ENDMDL
MODEL 5
REMARK VINA RESULT:      -5.2      2.094      5.033
REMARK  7 active torsions:
REMARK  status: ('A' for Active; 'I' for Inactive)
REMARK    1  A    between atoms: C_2  and  C_3 
REMARK    2  A    between atoms: C_3  and  O_6 
REMARK    3  A    between atoms: C_3  and  C_4 
REMARK    4  A    between atoms: C_7  and  O_6 
REMARK    5  A    between atoms: C_9  and  C_10 
REMARK    6  A    between atoms: N_15  and  C_14 
REMARK    7  A    between atoms: N_20  and  C_19 
REMARK       I    between atoms: C_22  and  N_20 
ROOT
ATOM      1  C   LIG d   1      -7.437  75.388 117.767  0.00  0.00     0.161 C 
ATOM      2  C   LIG d   1      -7.762  74.048 117.502  0.00  0.00     0.016 C 
ATOM      3  C   LIG d   1      -7.062  73.247 116.570  0.00  0.00     0.038 C 
ATOM      4  C   LIG d   1      -5.887  73.690 115.946  0.00  0.00     0.028 C 
ATOM      5  C   LIG d   1      -5.813  75.207 115.802  0.00  0.00    -0.047 C 
ATOM      6  C   LIG d   1      -6.090  75.856 117.178  0.00  0.00     0.091 C 
ENDROOT
BRANCH   1   7
ATOM      7  O   LIG d   1      -7.473  75.629 119.187  0.00  0.00    -0.368 OA
BRANCH   7   8
ATOM      8  C   LIG d   1      -8.695  76.211 119.704  0.00  0.00     0.119 C 
BRANCH   8   9
ATOM      9  C   LIG d   1      -9.381  76.955 118.543  0.00  0.00     0.028 C 
ATOM     10  C   LIG d   1     -10.875  76.607 118.424  0.00  0.00     0.006 C 
ENDBRANCH   8   9
BRANCH   8  11
ATOM     11  C   LIG d   1      -8.399  77.285 120.755  0.00  0.00     0.028 C 
ATOM     12  C   LIG d   1      -8.277  78.693 120.150  0.00  0.00     0.006 C 
ENDBRANCH   8  11
ENDBRANCH   7   8
ENDBRANCH   1   7
BRANCH   6  13
ATOM     13  N   LIG d   1      -6.120  77.340 117.108  0.00  0.00    -0.311 N 
ATOM     14  C   LIG d   1      -5.396  78.126 117.904  0.00  0.00     0.210 C 
ATOM     15  C   LIG d   1      -5.591  79.629 117.679  0.00  0.00     0.109 C 
ATOM     16  O   LIG d   1      -4.587  77.721 118.752  0.00  0.00    -0.276 OA
ATOM     17  H   LIG d   1      -6.726  77.753 116.427  0.00  0.00     0.149 HD
ENDBRANCH   6  13
BRANCH   5  18
ATOM     18  N   LIG d   1      -4.481  75.539 115.263  0.00  0.00     0.381 N 
ATOM     19  H   LIG d   1      -4.449  75.330 114.285  0.00  0.00    -0.090 HD
ATOM     20  H   LIG d   1      -3.792  74.975 115.729  0.00  0.00    -0.090 HD
ATOM     21  H   LIG d   1      -4.285  76.505 115.410  0.00  0.00    -0.090 HD
ENDBRANCH   5  18
BRANCH   3  22
ATOM     22  C   LIG d   1      -7.561  72.000 116.225  0.00  0.00     0.382 C 
ATOM     23  O   LIG d   1      -6.866  71.215 115.536  0.00  0.00    -0.241 OA
ATOM     24  O   LIG d   1      -8.715  71.667 116.556  0.00  0.00    -0.241 OA
ENDBRANCH   3  22
TORSDOF 7
ENDMDL
MODEL 6
REMARK VINA RESULT:      -5.1     11.375     14.200
REMARK  7 active torsions:
REMARK  status: ('A' for Active; 'I' for Inactive)
REMARK    1  A    between atoms: C_2  and  C_3 
REMARK    2  A    between atoms: C_3  and  O_6 
REMARK    3  A    between atoms: C_3  and  C_4 
REMARK    4  A    between atoms: C_7  and  O_6 
REMARK    5  A    between atoms: C_9  and  C_10 
REMARK    6  A    between atoms: N_15  and  C_14 
REMARK    7  A    between atoms: N_20  and  C_19 
REMARK       I    between atoms: C_22  and  N_20 
ROOT
ATOM      1  C   LIG d   1     -16.371  65.351 116.578  0.00  0.00     0.161 C 
ATOM      2  C   LIG d   1     -16.056  66.135 115.456  0.00  0.00     0.016 C 
ATOM      3  C   LIG d   1     -15.120  67.195 115.486  0.00  0.00     0.038 C 
ATOM      4  C   LIG d   1     -14.321  67.447 116.611  0.00  0.00     0.028 C 
ATOM      5  C   LIG d   1     -14.963  67.007 117.921  0.00  0.00    -0.047 C 
ATOM      6  C   LIG d   1     -15.428  65.539 117.784  0.00  0.00     0.091 C 
ENDROOT
BRANCH   1   7
ATOM      7  O   LIG d   1     -16.432  63.961 116.201  0.00  0.00    -0.368 OA
BRANCH   7   8
ATOM      8  C   LIG d   1     -17.545  63.578 115.357  0.00  0.00     0.119 C 
BRANCH   8   9
ATOM      9  C   LIG d   1     -18.819  63.618 116.224  0.00  0.00     0.028 C 
ATOM     10  C   LIG d   1     -19.863  64.612 115.687  0.00  0.00     0.006 C 
ENDBRANCH   8   9
BRANCH   8  11
ATOM     11  C   LIG d   1     -17.417  62.124 114.892  0.00  0.00     0.028 C 
ATOM     12  C   LIG d   1     -18.440  61.753 113.806  0.00  0.00     0.006 C 
ENDBRANCH   8  11
ENDBRANCH   7   8
ENDBRANCH   1   7
BRANCH   6  13
ATOM     13  N   LIG d   1     -16.143  65.055 118.994  0.00  0.00    -0.311 N 
ATOM     14  C   LIG d   1     -15.525  64.535 120.053  0.00  0.00     0.210 C 
ATOM     15  C   LIG d   1     -16.452  64.081 121.184  0.00  0.00     0.109 C 
ATOM     16  O   LIG d   1     -14.295  64.437 120.175  0.00  0.00    -0.276 OA
ATOM     17  H   LIG d   1     -17.142  65.126 118.992  0.00  0.00     0.149 HD
ENDBRANCH   6  13
BRANCH   5  18
ATOM     18  N   LIG d   1     -13.968  67.200 118.993  0.00  0.00     0.381 N 
ATOM     19  H   LIG d   1     -13.247  67.818 118.678  0.00  0.00    -0.090 HD
ATOM     20  H   LIG d   1     -13.550  66.314 119.212  0.00  0.00    -0.090 HD
ATOM     21  H   LIG d   1     -14.408  67.578 119.803  0.00  0.00    -0.090 HD
ENDBRANCH   5  18
BRANCH   3  22
ATOM     22  C   LIG d   1     -15.007  68.042 114.394  0.00  0.00     0.382 C 
ATOM     23  O   LIG d   1     -14.554  69.203 114.545  0.00  0.00    -0.241 OA
ATOM     24  O   LIG d   1     -15.392  67.676 113.267  0.00  0.00    -0.241 OA
ENDBRANCH   3  22
TORSDOF 7
ENDMDL
MODEL 7
REMARK VINA RESULT:      -5.1     12.396     15.392
REMARK  7 active torsions:
REMARK  status: ('A' for Active; 'I' for Inactive)
REMARK    1  A    between atoms: C_2  and  C_3 
REMARK    2  A    between atoms: C_3  and  O_6 
REMARK    3  A    between atoms: C_3  and  C_4 
REMARK    4  A    between atoms: C_7  and  O_6 
REMARK    5  A    between atoms: C_9  and  C_10 
REMARK    6  A    between atoms: N_15  and  C_14 
REMARK    7  A    between atoms: N_20  and  C_19 
REMARK       I    between atoms: C_22  and  N_20 
ROOT
ATOM      1  C   LIG d   1     -16.639  64.719 116.906  0.00  0.00     0.161 C 
ATOM      2  C   LIG d   1     -15.997  65.953 117.105  0.00  0.00     0.016 C 
ATOM      3  C   LIG d   1     -15.456  66.727 116.054  0.00  0.00     0.038 C 
ATOM      4  C   LIG d   1     -15.654  66.391 114.707  0.00  0.00     0.028 C 
ATOM      5  C   LIG d   1     -15.857  64.897 114.479  0.00  0.00    -0.047 C 
ATOM      6  C   LIG d   1     -16.963  64.390 115.433  0.00  0.00     0.091 C 
ENDROOT
BRANCH   1   7
ATOM      7  O   LIG d   1     -17.835  64.655 117.708  0.00  0.00    -0.368 OA
BRANCH   7   8
ATOM      8  C   LIG d   1     -18.922  65.522 117.302  0.00  0.00     0.119 C 
BRANCH   8   9
ATOM      9  C   LIG d   1     -19.392  66.291 118.552  0.00  0.00     0.028 C 
ATOM     10  C   LIG d   1     -19.934  67.689 118.212  0.00  0.00     0.006 C 
ENDBRANCH   8   9
BRANCH   8  11
ATOM     11  C   LIG d   1     -20.138  64.713 116.843  0.00  0.00     0.028 C 
ATOM     12  C   LIG d   1     -20.750  65.246 115.537  0.00  0.00     0.006 C 
ENDBRANCH   8  11
ENDBRANCH   7   8
ENDBRANCH   1   7
BRANCH   6  13
ATOM     13  N   LIG d   1     -17.167  62.921 115.335  0.00  0.00    -0.311 N 
ATOM     14  C   LIG d   1     -18.046  62.356 114.509  0.00  0.00     0.210 C 
ATOM     15  C   LIG d   1     -18.110  60.827 114.581  0.00  0.00     0.109 C 
ATOM     16  O   LIG d   1     -18.755  62.974 113.701  0.00  0.00    -0.276 OA
ATOM     17  H   LIG d   1     -16.610  62.342 115.933  0.00  0.00     0.149 HD
ENDBRANCH   6  13
BRANCH   5  18
ATOM     18  N   LIG d   1     -16.190  64.704 113.055  0.00  0.00     0.381 N 
ATOM     19  H   LIG d   1     -17.153  64.452 112.963  0.00  0.00    -0.090 HD
ATOM     20  H   LIG d   1     -15.631  63.953 112.690  0.00  0.00    -0.090 HD
ATOM     21  H   LIG d   1     -16.008  65.541 112.546  0.00  0.00    -0.090 HD
ENDBRANCH   5  18
BRANCH   3  22
ATOM     22  C   LIG d   1     -14.671  67.833 116.348  0.00  0.00     0.382 C 
ATOM     23  O   LIG d   1     -15.040  68.977 115.988  0.00  0.00    -0.241 OA
ATOM     24  O   LIG d   1     -13.579  67.695 116.930  0.00  0.00    -0.241 OA
ENDBRANCH   3  22
TORSDOF 7
ENDMDL
MODEL 8
REMARK VINA RESULT:      -5.0      2.661      4.705
REMARK  7 active torsions:
REMARK  status: ('A' for Active; 'I' for Inactive)
REMARK    1  A    between atoms: C_2  and  C_3 
REMARK    2  A    between atoms: C_3  and  O_6 
REMARK    3  A    between atoms: C_3  and  C_4 
REMARK    4  A    between atoms: C_7  and  O_6 
REMARK    5  A    between atoms: C_9  and  C_10 
REMARK    6  A    between atoms: N_15  and  C_14 
REMARK    7  A    between atoms: N_20  and  C_19 
REMARK       I    between atoms: C_22  and  N_20 
ROOT
ATOM      1  C   LIG d   1      -5.467  74.932 116.376  0.00  0.00     0.161 C 
ATOM      2  C   LIG d   1      -6.058  73.686 116.108  0.00  0.00     0.016 C 
ATOM      3  C   LIG d   1      -7.286  73.270 116.672  0.00  0.00     0.038 C 
ATOM      4  C   LIG d   1      -8.086  74.138 117.430  0.00  0.00     0.028 C 
ATOM      5  C   LIG d   1      -7.291  75.228 118.141  0.00  0.00    -0.047 C 
ATOM      6  C   LIG d   1      -6.379  75.936 117.113  0.00  0.00     0.091 C 
ENDROOT
BRANCH   1   7
ATOM      7  O   LIG d   1      -4.970  75.511 115.153  0.00  0.00    -0.368 OA
BRANCH   7   8
ATOM      8  C   LIG d   1      -3.530  75.625 115.042  0.00  0.00     0.119 C 
BRANCH   8   9
ATOM      9  C   LIG d   1      -2.917  75.022 116.320  0.00  0.00     0.028 C 
ATOM     10  C   LIG d   1      -1.701  74.129 116.023  0.00  0.00     0.006 C 
ENDBRANCH   8   9
BRANCH   8  11
ATOM     11  C   LIG d   1      -3.087  77.091 115.033  0.00  0.00     0.028 C 
ATOM     12  C   LIG d   1      -2.711  77.591 113.629  0.00  0.00     0.006 C 
ENDBRANCH   8  11
ENDBRANCH   7   8
ENDBRANCH   1   7
BRANCH   6  13
ATOM     13  N   LIG d   1      -5.505  76.960 117.741  0.00  0.00    -0.311 N 
ATOM     14  C   LIG d   1      -5.801  78.259 117.768  0.00  0.00     0.210 C 
ATOM     15  C   LIG d   1      -4.753  79.146 118.448  0.00  0.00     0.109 C 
ATOM     16  O   LIG d   1      -6.846  78.756 117.322  0.00  0.00    -0.276 OA
ATOM     17  H   LIG d   1      -4.651  76.640 118.155  0.00  0.00     0.149 HD
ENDBRANCH   6  13
BRANCH   5  18
ATOM     18  N   LIG d   1      -8.259  76.141 118.779  0.00  0.00     0.381 N 
ATOM     19  H   LIG d   1      -7.771  76.841 119.300  0.00  0.00    -0.090 HD
ATOM     20  H   LIG d   1      -8.831  75.614 119.416  0.00  0.00    -0.090 HD
ATOM     21  H   LIG d   1      -8.831  76.570 118.086  0.00  0.00    -0.090 HD
ENDBRANCH   5  18
BRANCH   3  22
ATOM     22  C   LIG d   1      -7.706  71.958 116.512  0.00  0.00     0.382 C 
ATOM     23  O   LIG d   1      -8.642  71.509 117.216  0.00  0.00    -0.241 OA
ATOM     24  O   LIG d   1      -7.131  71.205 115.704  0.00  0.00    -0.241 OA
ENDBRANCH   3  22
TORSDOF 7
ENDMDL
MODEL 9
REMARK VINA RESULT:      -5.0      1.757      4.919
REMARK  7 active torsions:
REMARK  status: ('A' for Active; 'I' for Inactive)
REMARK    1  A    between atoms: C_2  and  C_3 
REMARK    2  A    between atoms: C_3  and  O_6 
REMARK    3  A    between atoms: C_3  and  C_4 
REMARK    4  A    between atoms: C_7  and  O_6 
REMARK    5  A    between atoms: C_9  and  C_10 
REMARK    6  A    between atoms: N_15  and  C_14 
REMARK    7  A    between atoms: N_20  and  C_19 
REMARK       I    between atoms: C_22  and  N_20 
ROOT
ATOM      1  C   LIG d   1      -6.760  76.910 117.217  0.00  0.00     0.161 C 
ATOM      2  C   LIG d   1      -5.528  77.575 117.106  0.00  0.00     0.016 C 
ATOM      3  C   LIG d   1      -5.290  78.865 117.632  0.00  0.00     0.038 C 
ATOM      4  C   LIG d   1      -6.228  79.520 118.443  0.00  0.00     0.028 C 
ATOM      5  C   LIG d   1      -7.668  79.105 118.159  0.00  0.00    -0.047 C 
ATOM      6  C   LIG d   1      -7.761  77.562 118.194  0.00  0.00     0.091 C 
ENDROOT
BRANCH   1   7
ATOM      7  O   LIG d   1      -6.541  75.530 117.572  0.00  0.00    -0.368 OA
BRANCH   7   8
ATOM      8  C   LIG d   1      -6.997  74.545 116.612  0.00  0.00     0.119 C 
BRANCH   8   9
ATOM      9  C   LIG d   1      -7.929  73.570 117.358  0.00  0.00     0.028 C 
ATOM     10  C   LIG d   1      -7.809  72.128 116.834  0.00  0.00     0.006 C 
ENDBRANCH   8   9
BRANCH   8  11
ATOM     11  C   LIG d   1      -5.836  73.686 116.101  0.00  0.00     0.028 C 
ATOM     12  C   LIG d   1      -5.243  74.210 114.784  0.00  0.00     0.006 C 
ENDBRANCH   8  11
ENDBRANCH   7   8
ENDBRANCH   1   7
BRANCH   6  13
ATOM     13  N   LIG d   1      -9.118  77.068 117.844  0.00  0.00    -0.311 N 
ATOM     14  C   LIG d   1     -10.026  76.713 118.752  0.00  0.00     0.210 C 
ATOM     15  C   LIG d   1     -11.355  76.213 118.176  0.00  0.00     0.109 C 
ATOM     16  O   LIG d   1      -9.869  76.796 119.979  0.00  0.00    -0.276 OA
ATOM     17  H   LIG d   1      -9.342  76.999 116.870  0.00  0.00     0.149 HD
ENDBRANCH   6  13
BRANCH   5  18
ATOM     18  N   LIG d   1      -8.527  79.758 119.165  0.00  0.00     0.381 N 
ATOM     19  H   LIG d   1      -8.168  80.668 119.377  0.00  0.00    -0.090 HD
ATOM     20  H   LIG d   1      -8.516  79.211 120.007  0.00  0.00    -0.090 HD
ATOM     21  H   LIG d   1      -9.459  79.834 118.821  0.00  0.00    -0.090 HD
ENDBRANCH   5  18
BRANCH   3  22
ATOM     22  C   LIG d   1      -4.115  79.530 117.315  0.00  0.00     0.382 C 
ATOM     23  O   LIG d   1      -3.043  79.217 117.886  0.00  0.00    -0.241 OA
ATOM     24  O   LIG d   1      -4.122  80.470 116.497  0.00  0.00    -0.241 OA
ENDBRANCH   3  22
TORSDOF 7
ENDMDL
