MODEL 1
REMARK VINA RESULT:      -5.5      0.000      0.000
REMARK  7 active torsions:
REMARK  status: ('A' for Active; 'I' for Inactive)
REMARK    1  A    between atoms: C_2  and  C_3 
REMARK    2  A    between atoms: C_3  and  O_6 
REMARK    3  A    between atoms: C_3  and  C_4 
REMARK    4  A    between atoms: C_7  and  O_6 
REMARK    5  A    between atoms: C_9  and  C_10 
REMARK    6  A    between atoms: N_15  and  C_14 
REMARK    7  A    between atoms: N_20  and  C_19 
REMARK       I    between atoms: C_22  and  N_20 
ROOT
ATOM      1  C   LIG d   1      -5.109  92.288 117.333  0.00  0.00     0.161 C 
ATOM      2  C   LIG d   1      -5.586  91.283 116.475  0.00  0.00     0.016 C 
ATOM      3  C   LIG d   1      -6.897  91.271 115.945  0.00  0.00     0.038 C 
ATOM      4  C   LIG d   1      -7.777  92.350 116.118  0.00  0.00     0.028 C 
ATOM      5  C   LIG d   1      -7.514  93.148 117.390  0.00  0.00    -0.047 C 
ATOM      6  C   LIG d   1      -6.017  93.530 117.443  0.00  0.00     0.091 C 
ENDROOT
BRANCH   1   7
ATOM      7  O   LIG d   1      -3.777  92.674 116.939  0.00  0.00    -0.368 OA
BRANCH   7   8
ATOM      8  C   LIG d   1      -2.718  92.357 117.875  0.00  0.00     0.119 C 
BRANCH   8   9
ATOM      9  C   LIG d   1      -1.635  93.445 117.735  0.00  0.00     0.028 C 
ATOM     10  C   LIG d   1      -2.208  94.865 117.880  0.00  0.00     0.006 C 
ENDBRANCH   8   9
BRANCH   8  11
ATOM     11  C   LIG d   1      -2.023  91.043 117.506  0.00  0.00     0.028 C 
ATOM     12  C   LIG d   1      -2.514  89.853 118.346  0.00  0.00     0.006 C 
ENDBRANCH   8  11
ENDBRANCH   7   8
ENDBRANCH   1   7
BRANCH   6  13
ATOM     13  N   LIG d   1      -5.658  94.240 118.698  0.00  0.00    -0.311 N 
ATOM     14  C   LIG d   1      -5.744  95.562 118.843  0.00  0.00     0.210 C 
ATOM     15  C   LIG d   1      -5.305  96.092 120.211  0.00  0.00     0.109 C 
ATOM     16  O   LIG d   1      -6.173  96.341 117.979  0.00  0.00    -0.276 OA
ATOM     17  H   LIG d   1      -5.329  93.681 119.461  0.00  0.00     0.149 HD
ENDBRANCH   6  13
BRANCH   5  18
ATOM     18  N   LIG d   1      -8.410  94.320 117.375  0.00  0.00     0.381 N 
ATOM     19  H   LIG d   1      -8.970  94.307 116.546  0.00  0.00    -0.090 HD
ATOM     20  H   LIG d   1      -7.852  95.155 117.365  0.00  0.00    -0.090 HD
ATOM     21  H   LIG d   1      -8.996  94.312 118.180  0.00  0.00    -0.090 HD
ENDBRANCH   5  18
BRANCH   3  22
ATOM     22  C   LIG d   1      -7.353  90.151 115.266  0.00  0.00     0.382 C 
ATOM     23  O   LIG d   1      -8.260  89.442 115.764  0.00  0.00    -0.241 OA
ATOM     24  O   LIG d   1      -6.839  89.817 114.182  0.00  0.00    -0.241 OA
ENDBRANCH   3  22
TORSDOF 7
ENDMDL
MODEL 2
REMARK VINA RESULT:      -5.5      2.146      4.473
REMARK  7 active torsions:
REMARK  status: ('A' for Active; 'I' for Inactive)
REMARK    1  A    between atoms: C_2  and  C_3 
REMARK    2  A    between atoms: C_3  and  O_6 
REMARK    3  A    between atoms: C_3  and  C_4 
REMARK    4  A    between atoms: C_7  and  O_6 
REMARK    5  A    between atoms: C_9  and  C_10 
REMARK    6  A    between atoms: N_15  and  C_14 
REMARK    7  A    between atoms: N_20  and  C_19 
REMARK       I    between atoms: C_22  and  N_20 
ROOT
ATOM      1  C   LIG d   1      -5.304  93.744 116.963  0.00  0.00     0.161 C 
ATOM      2  C   LIG d   1      -6.466  93.026 116.635  0.00  0.00     0.016 C 
ATOM      3  C   LIG d   1      -6.474  91.637 116.370  0.00  0.00     0.038 C 
ATOM      4  C   LIG d   1      -5.336  90.839 116.566  0.00  0.00     0.028 C 
ATOM      5  C   LIG d   1      -4.026  91.603 116.407  0.00  0.00    -0.047 C 
ATOM      6  C   LIG d   1      -4.075  92.871 117.289  0.00  0.00     0.091 C 
ENDROOT
BRANCH   1   7
ATOM      7  O   LIG d   1      -5.580  94.648 118.051  0.00  0.00    -0.368 OA
BRANCH   7   8
ATOM      8  C   LIG d   1      -6.896  95.253 118.059  0.00  0.00     0.119 C 
BRANCH   8   9
ATOM      9  C   LIG d   1      -6.706  96.777 117.924  0.00  0.00     0.028 C 
ATOM     10  C   LIG d   1      -7.315  97.551 119.105  0.00  0.00     0.006 C 
ENDBRANCH   8   9
BRANCH   8  11
ATOM     11  C   LIG d   1      -7.595  95.050 119.407  0.00  0.00     0.028 C 
ATOM     12  C   LIG d   1      -8.825  94.134 119.308  0.00  0.00     0.006 C 
ENDBRANCH   8  11
ENDBRANCH   7   8
ENDBRANCH   1   7
BRANCH   6  13
ATOM     13  N   LIG d   1      -2.865  93.720 117.129  0.00  0.00    -0.311 N 
ATOM     14  C   LIG d   1      -1.782  93.605 117.896  0.00  0.00     0.210 C 
ATOM     15  C   LIG d   1      -0.655  94.591 117.574  0.00  0.00     0.109 C 
ATOM     16  O   LIG d   1      -1.635  92.758 118.790  0.00  0.00    -0.276 OA
ATOM     17  H   LIG d   1      -2.886  94.412 116.406  0.00  0.00     0.149 HD
ENDBRANCH   6  13
BRANCH   5  18
ATOM     18  N   LIG d   1      -2.929  90.686 116.772  0.00  0.00     0.381 N 
ATOM     19  H   LIG d   1      -2.864  89.950 116.097  0.00  0.00    -0.090 HD
ATOM     20  H   LIG d   1      -3.132  90.277 117.667  0.00  0.00    -0.090 HD
ATOM     21  H   LIG d   1      -2.068  91.185 116.814  0.00  0.00    -0.090 HD
ENDBRANCH   5  18
BRANCH   3  22
ATOM     22  C   LIG d   1      -7.619  91.039 115.867  0.00  0.00     0.382 C 
ATOM     23  O   LIG d   1      -7.667  89.793 115.728  0.00  0.00    -0.241 OA
ATOM     24  O   LIG d   1      -8.589  91.734 115.509  0.00  0.00    -0.241 OA
ENDBRANCH   3  22
TORSDOF 7
ENDMDL
MODEL 3
REMARK VINA RESULT:      -5.5      1.805      2.529
REMARK  7 active torsions:
REMARK  status: ('A' for Active; 'I' for Inactive)
REMARK    1  A    between atoms: C_2  and  C_3 
REMARK    2  A    between atoms: C_3  and  O_6 
REMARK    3  A    between atoms: C_3  and  C_4 
REMARK    4  A    between atoms: C_7  and  O_6 
REMARK    5  A    between atoms: C_9  and  C_10 
REMARK    6  A    between atoms: N_15  and  C_14 
REMARK    7  A    between atoms: N_20  and  C_19 
REMARK       I    between atoms: C_22  and  N_20 
ROOT
ATOM      1  C   LIG d   1      -4.439  91.750 117.149  0.00  0.00     0.161 C 
ATOM      2  C   LIG d   1      -5.289  91.049 116.277  0.00  0.00     0.016 C 
ATOM      3  C   LIG d   1      -6.417  91.632 115.655  0.00  0.00     0.038 C 
ATOM      4  C   LIG d   1      -6.687  93.005 115.746  0.00  0.00     0.028 C 
ATOM      5  C   LIG d   1      -6.146  93.646 117.020  0.00  0.00    -0.047 C 
ATOM      6  C   LIG d   1      -4.653  93.278 117.172  0.00  0.00     0.091 C 
ENDROOT
BRANCH   1   7
ATOM      7  O   LIG d   1      -3.064  91.441 116.844  0.00  0.00    -0.368 OA
BRANCH   7   8
ATOM      8  C   LIG d   1      -2.474  90.350 117.594  0.00  0.00     0.119 C 
BRANCH   8   9
ATOM      9  C   LIG d   1      -2.895  90.520 119.066  0.00  0.00     0.028 C 
ATOM     10  C   LIG d   1      -3.397  89.206 119.688  0.00  0.00     0.006 C 
ENDBRANCH   8   9
BRANCH   8  11
ATOM     11  C   LIG d   1      -0.945  90.439 117.596  0.00  0.00     0.028 C 
ATOM     12  C   LIG d   1      -0.413  91.530 118.538  0.00  0.00     0.006 C 
ENDBRANCH   8  11
ENDBRANCH   7   8
ENDBRANCH   1   7
BRANCH   6  13
ATOM     13  N   LIG d   1      -4.068  93.794 118.437  0.00  0.00    -0.311 N 
ATOM     14  C   LIG d   1      -2.874  94.380 118.506  0.00  0.00     0.210 C 
ATOM     15  C   LIG d   1      -2.451  94.822 119.911  0.00  0.00     0.109 C 
ATOM     16  O   LIG d   1      -2.138  94.605 117.533  0.00  0.00    -0.276 OA
ATOM     17  H   LIG d   1      -4.611  93.682 119.270  0.00  0.00     0.149 HD
ENDBRANCH   6  13
BRANCH   5  18
ATOM     18  N   LIG d   1      -6.376  95.100 116.920  0.00  0.00     0.381 N 
ATOM     19  H   LIG d   1      -5.910  95.461 116.111  0.00  0.00    -0.090 HD
ATOM     20  H   LIG d   1      -5.990  95.547 117.733  0.00  0.00    -0.090 HD
ATOM     21  H   LIG d   1      -7.353  95.287 116.861  0.00  0.00    -0.090 HD
ENDBRANCH   5  18
BRANCH   3  22
ATOM     22  C   LIG d   1      -7.312  90.829 114.965  0.00  0.00     0.382 C 
ATOM     23  O   LIG d   1      -6.889  89.892 114.246  0.00  0.00    -0.241 OA
ATOM     24  O   LIG d   1      -8.536  91.057 115.018  0.00  0.00    -0.241 OA
ENDBRANCH   3  22
TORSDOF 7
ENDMDL
MODEL 4
REMARK VINA RESULT:      -5.4     15.555     18.139
REMARK  7 active torsions:
REMARK  status: ('A' for Active; 'I' for Inactive)
REMARK    1  A    between atoms: C_2  and  C_3 
REMARK    2  A    between atoms: C_3  and  O_6 
REMARK    3  A    between atoms: C_3  and  C_4 
REMARK    4  A    between atoms: C_7  and  O_6 
REMARK    5  A    between atoms: C_9  and  C_10 
REMARK    6  A    between atoms: N_15  and  C_14 
REMARK    7  A    between atoms: N_20  and  C_19 
REMARK       I    between atoms: C_22  and  N_20 
ROOT
ATOM      1  C   LIG d   1      -6.275  75.080 117.073  0.00  0.00     0.161 C 
ATOM      2  C   LIG d   1      -5.083  74.423 116.724  0.00  0.00     0.016 C 
ATOM      3  C   LIG d   1      -3.798  74.928 117.029  0.00  0.00     0.038 C 
ATOM      4  C   LIG d   1      -3.619  76.057 117.843  0.00  0.00     0.028 C 
ATOM      5  C   LIG d   1      -4.791  77.032 117.792  0.00  0.00    -0.047 C 
ATOM      6  C   LIG d   1      -6.101  76.256 118.057  0.00  0.00     0.091 C 
ENDROOT
BRANCH   1   7
ATOM      7  O   LIG d   1      -7.224  74.128 117.592  0.00  0.00    -0.368 OA
BRANCH   7   8
ATOM      8  C   LIG d   1      -7.967  73.367 116.609  0.00  0.00     0.119 C 
BRANCH   8   9
ATOM      9  C   LIG d   1      -9.463  73.667 116.824  0.00  0.00     0.028 C 
ATOM     10  C   LIG d   1      -9.867  75.049 116.282  0.00  0.00     0.006 C 
ENDBRANCH   8   9
BRANCH   8  11
ATOM     11  C   LIG d   1      -7.818  71.860 116.842  0.00  0.00     0.028 C 
ATOM     12  C   LIG d   1      -9.136  71.094 116.645  0.00  0.00     0.006 C 
ENDBRANCH   8  11
ENDBRANCH   7   8
ENDBRANCH   1   7
BRANCH   6  13
ATOM     13  N   LIG d   1      -7.305  77.120 117.942  0.00  0.00    -0.311 N 
ATOM     14  C   LIG d   1      -7.911  77.677 118.989  0.00  0.00     0.210 C 
ATOM     15  C   LIG d   1      -9.147  78.515 118.651  0.00  0.00     0.109 C 
ATOM     16  O   LIG d   1      -7.522  77.582 120.163  0.00  0.00    -0.276 OA
ATOM     17  H   LIG d   1      -7.669  77.276 117.022  0.00  0.00     0.149 HD
ENDBRANCH   6  13
BRANCH   5  18
ATOM     18  N   LIG d   1      -4.534  78.090 118.787  0.00  0.00     0.381 N 
ATOM     19  H   LIG d   1      -5.295  78.137 119.435  0.00  0.00    -0.090 HD
ATOM     20  H   LIG d   1      -4.468  78.973 118.313  0.00  0.00    -0.090 HD
ATOM     21  H   LIG d   1      -3.685  77.901 119.274  0.00  0.00    -0.090 HD
ENDBRANCH   5  18
BRANCH   3  22
ATOM     22  C   LIG d   1      -2.675  74.324 116.485  0.00  0.00     0.382 C 
ATOM     23  O   LIG d   1      -2.331  74.586 115.308  0.00  0.00    -0.241 OA
ATOM     24  O   LIG d   1      -2.028  73.486 117.142  0.00  0.00    -0.241 OA
ENDBRANCH   3  22
TORSDOF 7
ENDMDL
MODEL 5
REMARK VINA RESULT:      -5.4     34.141     35.428
REMARK  7 active torsions:
REMARK  status: ('A' for Active; 'I' for Inactive)
REMARK    1  A    between atoms: C_2  and  C_3 
REMARK    2  A    between atoms: C_3  and  O_6 
REMARK    3  A    between atoms: C_3  and  C_4 
REMARK    4  A    between atoms: C_7  and  O_6 
REMARK    5  A    between atoms: C_9  and  C_10 
REMARK    6  A    between atoms: N_15  and  C_14 
REMARK    7  A    between atoms: N_20  and  C_19 
REMARK       I    between atoms: C_22  and  N_20 
ROOT
ATOM      1  C   LIG d   1       0.077  59.007 117.616  0.00  0.00     0.161 C 
ATOM      2  C   LIG d   1      -1.189  59.125 117.019  0.00  0.00     0.016 C 
ATOM      3  C   LIG d   1      -1.757  58.126 116.196  0.00  0.00     0.038 C 
ATOM      4  C   LIG d   1      -1.159  56.867 116.037  0.00  0.00     0.028 C 
ATOM      5  C   LIG d   1       0.356  56.891 116.212  0.00  0.00    -0.047 C 
ATOM      6  C   LIG d   1       0.696  57.595 117.545  0.00  0.00     0.091 C 
ENDROOT
BRANCH   1   7
ATOM      7  O   LIG d   1       0.016  59.458 118.984  0.00  0.00    -0.368 OA
BRANCH   7   8
ATOM      8  C   LIG d   1      -0.288  58.447 119.976  0.00  0.00     0.119 C 
BRANCH   8   9
ATOM      9  C   LIG d   1      -1.623  58.837 120.640  0.00  0.00     0.028 C 
ATOM     10  C   LIG d   1      -2.781  57.920 120.212  0.00  0.00     0.006 C 
ENDBRANCH   8   9
BRANCH   8  11
ATOM     11  C   LIG d   1       0.743  58.449 121.108  0.00  0.00     0.028 C 
ATOM     12  C   LIG d   1       1.818  59.534 120.933  0.00  0.00     0.006 C 
ENDBRANCH   8  11
ENDBRANCH   7   8
ENDBRANCH   1   7
BRANCH   6  13
ATOM     13  N   LIG d   1       2.161  57.736 117.754  0.00  0.00    -0.311 N 
ATOM     14  C   LIG d   1       2.884  56.880 118.473  0.00  0.00     0.210 C 
ATOM     15  C   LIG d   1       4.374  57.221 118.579  0.00  0.00     0.109 C 
ATOM     16  O   LIG d   1       2.440  55.853 119.008  0.00  0.00    -0.276 OA
ATOM     17  H   LIG d   1       2.609  58.524 117.329  0.00  0.00     0.149 HD
ENDBRANCH   6  13
BRANCH   5  18
ATOM     18  N   LIG d   1       0.832  55.496 116.157  0.00  0.00     0.381 N 
ATOM     19  H   LIG d   1       0.800  55.091 117.072  0.00  0.00    -0.090 HD
ATOM     20  H   LIG d   1       1.787  55.490 115.843  0.00  0.00    -0.090 HD
ATOM     21  H   LIG d   1       0.266  54.966 115.532  0.00  0.00    -0.090 HD
ENDBRANCH   5  18
BRANCH   3  22
ATOM     22  C   LIG d   1      -2.920  58.397 115.490  0.00  0.00     0.382 C 
ATOM     23  O   LIG d   1      -2.898  59.211 114.536  0.00  0.00    -0.241 OA
ATOM     24  O   LIG d   1      -3.998  57.870 115.822  0.00  0.00    -0.241 OA
ENDBRANCH   3  22
TORSDOF 7
ENDMDL
MODEL 6
REMARK VINA RESULT:      -5.4     34.199     35.833
REMARK  7 active torsions:
REMARK  status: ('A' for Active; 'I' for Inactive)
REMARK    1  A    between atoms: C_2  and  C_3 
REMARK    2  A    between atoms: C_3  and  O_6 
REMARK    3  A    between atoms: C_3  and  C_4 
REMARK    4  A    between atoms: C_7  and  O_6 
REMARK    5  A    between atoms: C_9  and  C_10 
REMARK    6  A    between atoms: N_15  and  C_14 
REMARK    7  A    between atoms: N_20  and  C_19 
REMARK       I    between atoms: C_22  and  N_20 
ROOT
ATOM      1  C   LIG d   1      -0.410  58.045 118.097  0.00  0.00     0.161 C 
ATOM      2  C   LIG d   1      -1.565  58.003 117.298  0.00  0.00     0.016 C 
ATOM      3  C   LIG d   1      -1.574  58.342 115.925  0.00  0.00     0.038 C 
ATOM      4  C   LIG d   1      -0.391  58.603 115.218  0.00  0.00     0.028 C 
ATOM      5  C   LIG d   1       0.731  59.148 116.094  0.00  0.00    -0.047 C 
ATOM      6  C   LIG d   1       0.910  58.219 117.316  0.00  0.00     0.091 C 
ENDROOT
BRANCH   1   7
ATOM      7  O   LIG d   1      -0.349  56.869 118.929  0.00  0.00    -0.368 OA
BRANCH   7   8
ATOM      8  C   LIG d   1      -0.873  55.650 118.348  0.00  0.00     0.119 C 
BRANCH   8   9
ATOM      9  C   LIG d   1      -1.491  54.821 119.491  0.00  0.00     0.028 C 
ATOM     10  C   LIG d   1      -1.723  55.656 120.762  0.00  0.00     0.006 C 
ENDBRANCH   8   9
BRANCH   8  11
ATOM     11  C   LIG d   1       0.249  54.778 117.776  0.00  0.00     0.028 C 
ATOM     12  C   LIG d   1       0.297  54.800 116.240  0.00  0.00     0.006 C 
ENDBRANCH   8  11
ENDBRANCH   7   8
ENDBRANCH   1   7
BRANCH   6  13
ATOM     13  N   LIG d   1       1.932  58.726 118.269  0.00  0.00    -0.311 N 
ATOM     14  C   LIG d   1       2.924  57.977 118.747  0.00  0.00     0.210 C 
ATOM     15  C   LIG d   1       3.856  58.689 119.732  0.00  0.00     0.109 C 
ATOM     16  O   LIG d   1       3.140  56.799 118.424  0.00  0.00    -0.276 OA
ATOM     17  H   LIG d   1       1.851  59.680 118.560  0.00  0.00     0.149 HD
ENDBRANCH   6  13
BRANCH   5  18
ATOM     18  N   LIG d   1       1.943  59.243 115.258  0.00  0.00     0.381 N 
ATOM     19  H   LIG d   1       2.726  59.501 115.825  0.00  0.00    -0.090 HD
ATOM     20  H   LIG d   1       1.806  59.960 114.567  0.00  0.00    -0.090 HD
ATOM     21  H   LIG d   1       2.119  58.370 114.812  0.00  0.00    -0.090 HD
ENDBRANCH   5  18
BRANCH   3  22
ATOM     22  C   LIG d   1      -2.782  58.463 115.255  0.00  0.00     0.382 C 
ATOM     23  O   LIG d   1      -3.779  57.805 115.638  0.00  0.00    -0.241 OA
ATOM     24  O   LIG d   1      -2.876  59.187 114.246  0.00  0.00    -0.241 OA
ENDBRANCH   3  22
TORSDOF 7
ENDMDL
MODEL 7
REMARK VINA RESULT:      -5.2     12.591     15.158
REMARK  7 active torsions:
REMARK  status: ('A' for Active; 'I' for Inactive)
REMARK    1  A    between atoms: C_2  and  C_3 
REMARK    2  A    between atoms: C_3  and  O_6 
REMARK    3  A    between atoms: C_3  and  C_4 
REMARK    4  A    between atoms: C_7  and  O_6 
REMARK    5  A    between atoms: C_9  and  C_10 
REMARK    6  A    between atoms: N_15  and  C_14 
REMARK    7  A    between atoms: N_20  and  C_19 
REMARK       I    between atoms: C_22  and  N_20 
ROOT
ATOM      1  C   LIG d   1      -7.005  78.094 118.297  0.00  0.00     0.161 C 
ATOM      2  C   LIG d   1      -8.374  78.202 118.595  0.00  0.00     0.016 C 
ATOM      3  C   LIG d   1      -9.041  79.439 118.751  0.00  0.00     0.038 C 
ATOM      4  C   LIG d   1      -8.412  80.661 118.469  0.00  0.00     0.028 C 
ATOM      5  C   LIG d   1      -6.899  80.622 118.657  0.00  0.00    -0.047 C 
ATOM      6  C   LIG d   1      -6.328  79.416 117.877  0.00  0.00     0.091 C 
ENDROOT
BRANCH   1   7
ATOM      7  O   LIG d   1      -6.803  77.085 117.289  0.00  0.00    -0.368 OA
BRANCH   7   8
ATOM      8  C   LIG d   1      -7.574  75.868 117.441  0.00  0.00     0.119 C 
BRANCH   8   9
ATOM      9  C   LIG d   1      -6.581  74.723 117.721  0.00  0.00     0.028 C 
ATOM     10  C   LIG d   1      -7.139  73.349 117.312  0.00  0.00     0.006 C 
ENDBRANCH   8   9
BRANCH   8  11
ATOM     11  C   LIG d   1      -8.276  75.485 116.135  0.00  0.00     0.028 C 
ATOM     12  C   LIG d   1      -9.802  75.386 116.286  0.00  0.00     0.006 C 
ENDBRANCH   8  11
ENDBRANCH   7   8
ENDBRANCH   1   7
BRANCH   6  13
ATOM     13  N   LIG d   1      -4.864  79.254 118.075  0.00  0.00    -0.311 N 
ATOM     14  C   LIG d   1      -3.951  79.841 117.304  0.00  0.00     0.210 C 
ATOM     15  C   LIG d   1      -2.497  79.526 117.669  0.00  0.00     0.109 C 
ATOM     16  O   LIG d   1      -4.206  80.619 116.372  0.00  0.00    -0.276 OA
ATOM     17  H   LIG d   1      -4.568  78.665 118.828  0.00  0.00     0.149 HD
ENDBRANCH   6  13
BRANCH   5  18
ATOM     18  N   LIG d   1      -6.359  81.915 118.197  0.00  0.00     0.381 N 
ATOM     19  H   LIG d   1      -6.739  82.657 118.752  0.00  0.00    -0.090 HD
ATOM     20  H   LIG d   1      -6.636  82.062 117.243  0.00  0.00    -0.090 HD
ATOM     21  H   LIG d   1      -5.366  81.914 118.267  0.00  0.00    -0.090 HD
ENDBRANCH   5  18
BRANCH   3  22
ATOM     22  C   LIG d   1     -10.341  79.463 119.233  0.00  0.00     0.382 C 
ATOM     23  O   LIG d   1     -10.715  80.398 119.981  0.00  0.00    -0.241 OA
ATOM     24  O   LIG d   1     -11.130  78.538 118.965  0.00  0.00    -0.241 OA
ENDBRANCH   3  22
TORSDOF 7
ENDMDL
MODEL 8
REMARK VINA RESULT:      -5.1     15.493     18.118
REMARK  7 active torsions:
REMARK  status: ('A' for Active; 'I' for Inactive)
REMARK    1  A    between atoms: C_2  and  C_3 
REMARK    2  A    between atoms: C_3  and  O_6 
REMARK    3  A    between atoms: C_3  and  C_4 
REMARK    4  A    between atoms: C_7  and  O_6 
REMARK    5  A    between atoms: C_9  and  C_10 
REMARK    6  A    between atoms: N_15  and  C_14 
REMARK    7  A    between atoms: N_20  and  C_19 
REMARK       I    between atoms: C_22  and  N_20 
ROOT
ATOM      1  C   LIG d   1      -5.651  75.582 116.154  0.00  0.00     0.161 C 
ATOM      2  C   LIG d   1      -4.458  74.902 115.856  0.00  0.00     0.016 C 
ATOM      3  C   LIG d   1      -3.337  74.886 116.717  0.00  0.00     0.038 C 
ATOM      4  C   LIG d   1      -3.387  75.427 118.011  0.00  0.00     0.028 C 
ATOM      5  C   LIG d   1      -4.398  76.559 118.155  0.00  0.00    -0.047 C 
ATOM      6  C   LIG d   1      -5.764  76.084 117.608  0.00  0.00     0.091 C 
ENDROOT
BRANCH   1   7
ATOM      7  O   LIG d   1      -6.782  74.753 115.821  0.00  0.00    -0.368 OA
BRANCH   7   8
ATOM      8  C   LIG d   1      -7.351  73.985 116.909  0.00  0.00     0.119 C 
BRANCH   8   9
ATOM      9  C   LIG d   1      -6.841  72.537 116.771  0.00  0.00     0.028 C 
ATOM     10  C   LIG d   1      -7.987  71.512 116.735  0.00  0.00     0.006 C 
ENDBRANCH   8   9
BRANCH   8  11
ATOM     11  C   LIG d   1      -8.875  73.891 116.788  0.00  0.00     0.028 C 
ATOM     12  C   LIG d   1      -9.524  75.223 116.381  0.00  0.00     0.006 C 
ENDBRANCH   8  11
ENDBRANCH   7   8
ENDBRANCH   1   7
BRANCH   6  13
ATOM     13  N   LIG d   1      -6.789  77.160 117.634  0.00  0.00    -0.311 N 
ATOM     14  C   LIG d   1      -7.545  77.427 118.699  0.00  0.00     0.210 C 
ATOM     15  C   LIG d   1      -8.554  78.563 118.506  0.00  0.00     0.109 C 
ATOM     16  O   LIG d   1      -7.452  76.852 119.794  0.00  0.00    -0.276 OA
ATOM     17  H   LIG d   1      -6.909  77.696 116.798  0.00  0.00     0.149 HD
ENDBRANCH   6  13
BRANCH   5  18
ATOM     18  N   LIG d   1      -4.445  76.935 119.580  0.00  0.00     0.381 N 
ATOM     19  H   LIG d   1      -5.288  76.590 119.994  0.00  0.00    -0.090 HD
ATOM     20  H   LIG d   1      -4.446  77.938 119.652  0.00  0.00    -0.090 HD
ATOM     21  H   LIG d   1      -3.655  76.562 120.058  0.00  0.00    -0.090 HD
ENDBRANCH   5  18
BRANCH   3  22
ATOM     22  C   LIG d   1      -2.135  74.358 116.270  0.00  0.00     0.382 C 
ATOM     23  O   LIG d   1      -1.492  73.561 116.995  0.00  0.00    -0.241 OA
ATOM     24  O   LIG d   1      -1.664  74.703 115.170  0.00  0.00    -0.241 OA
ENDBRANCH   3  22
TORSDOF 7
ENDMDL
MODEL 9
REMARK VINA RESULT:      -5.1     34.081     35.328
REMARK  7 active torsions:
REMARK  status: ('A' for Active; 'I' for Inactive)
REMARK    1  A    between atoms: C_2  and  C_3 
REMARK    2  A    between atoms: C_3  and  O_6 
REMARK    3  A    between atoms: C_3  and  C_4 
REMARK    4  A    between atoms: C_7  and  O_6 
REMARK    5  A    between atoms: C_9  and  C_10 
REMARK    6  A    between atoms: N_15  and  C_14 
REMARK    7  A    between atoms: N_20  and  C_19 
REMARK       I    between atoms: C_22  and  N_20 
ROOT
ATOM      1  C   LIG d   1       0.332  58.213 118.052  0.00  0.00     0.161 C 
ATOM      2  C   LIG d   1       0.608  58.663 116.750  0.00  0.00     0.016 C 
ATOM      3  C   LIG d   1      -0.390  58.856 115.766  0.00  0.00     0.038 C 
ATOM      4  C   LIG d   1      -1.756  58.758 116.067  0.00  0.00     0.028 C 
ATOM      5  C   LIG d   1      -2.054  57.818 117.230  0.00  0.00    -0.047 C 
ATOM      6  C   LIG d   1      -1.163  58.207 118.431  0.00  0.00     0.091 C 
ENDROOT
BRANCH   1   7
ATOM      7  O   LIG d   1       1.088  58.986 119.005  0.00  0.00    -0.368 OA
BRANCH   7   8
ATOM      8  C   LIG d   1       2.493  58.654 119.124  0.00  0.00     0.119 C 
BRANCH   8   9
ATOM      9  C   LIG d   1       2.587  57.161 119.494  0.00  0.00     0.028 C 
ATOM     10  C   LIG d   1       3.628  56.411 118.646  0.00  0.00     0.006 C 
ENDBRANCH   8   9
BRANCH   8  11
ATOM     11  C   LIG d   1       3.146  59.403 120.290  0.00  0.00     0.028 C 
ATOM     12  C   LIG d   1       4.436  60.132 119.883  0.00  0.00     0.006 C 
ENDBRANCH   8  11
ENDBRANCH   7   8
ENDBRANCH   1   7
BRANCH   6  13
ATOM     13  N   LIG d   1      -1.331  57.285 119.584  0.00  0.00    -0.311 N 
ATOM     14  C   LIG d   1      -1.177  55.965 119.495  0.00  0.00     0.210 C 
ATOM     15  C   LIG d   1      -1.416  55.197 120.799  0.00  0.00     0.109 C 
ATOM     16  O   LIG d   1      -0.833  55.360 118.468  0.00  0.00    -0.276 OA
ATOM     17  H   LIG d   1      -1.579  57.694 120.464  0.00  0.00     0.149 HD
ENDBRANCH   6  13
BRANCH   5  18
ATOM     18  N   LIG d   1      -3.497  57.916 117.524  0.00  0.00     0.381 N 
ATOM     19  H   LIG d   1      -3.639  58.488 118.332  0.00  0.00    -0.090 HD
ATOM     20  H   LIG d   1      -3.851  56.997 117.722  0.00  0.00    -0.090 HD
ATOM     21  H   LIG d   1      -3.978  58.304 116.743  0.00  0.00    -0.090 HD
ENDBRANCH   5  18
BRANCH   3  22
ATOM     22  C   LIG d   1      -0.021  59.114 114.455  0.00  0.00     0.382 C 
ATOM     23  O   LIG d   1      -0.894  59.413 113.605  0.00  0.00    -0.241 OA
ATOM     24  O   LIG d   1       1.169  59.008 114.101  0.00  0.00    -0.241 OA
ENDBRANCH   3  22
TORSDOF 7
ENDMDL
