MODEL 1
REMARK VINA RESULT:      -5.1      0.000      0.000
REMARK  7 active torsions:
REMARK  status: ('A' for Active; 'I' for Inactive)
REMARK    1  A    between atoms: C_2  and  C_3 
REMARK    2  A    between atoms: C_3  and  O_6 
REMARK    3  A    between atoms: C_3  and  C_4 
REMARK    4  A    between atoms: C_7  and  O_6 
REMARK    5  A    between atoms: C_9  and  C_10 
REMARK    6  A    between atoms: N_15  and  C_14 
REMARK    7  A    between atoms: N_20  and  C_19 
REMARK       I    between atoms: C_22  and  N_20 
ROOT
ATOM      1  C   LIG d   1      -6.238  93.525 116.826  0.00  0.00     0.161 C 
ATOM      2  C   LIG d   1      -6.843  92.520 116.053  0.00  0.00     0.016 C 
ATOM      3  C   LIG d   1      -6.239  91.268 115.793  0.00  0.00     0.038 C 
ATOM      4  C   LIG d   1      -5.047  90.876 116.419  0.00  0.00     0.028 C 
ATOM      5  C   LIG d   1      -4.152  92.049 116.807  0.00  0.00    -0.047 C 
ATOM      6  C   LIG d   1      -4.987  93.074 117.608  0.00  0.00     0.091 C 
ENDROOT
BRANCH   1   7
ATOM      7  O   LIG d   1      -7.208  94.103 117.722  0.00  0.00    -0.368 OA
BRANCH   7   8
ATOM      8  C   LIG d   1      -7.467  95.518 117.553  0.00  0.00     0.119 C 
BRANCH   8   9
ATOM      9  C   LIG d   1      -6.966  96.235 118.822  0.00  0.00     0.028 C 
ATOM     10  C   LIG d   1      -7.055  95.344 120.073  0.00  0.00     0.006 C 
ENDBRANCH   8   9
BRANCH   8  11
ATOM     11  C   LIG d   1      -8.971  95.806 117.492  0.00  0.00     0.028 C 
ATOM     12  C   LIG d   1      -9.287  97.213 116.963  0.00  0.00     0.006 C 
ENDBRANCH   8  11
ENDBRANCH   7   8
ENDBRANCH   1   7
BRANCH   6  13
ATOM     13  N   LIG d   1      -4.209  94.292 117.954  0.00  0.00    -0.311 N 
ATOM     14  C   LIG d   1      -3.598  94.464 119.125  0.00  0.00     0.210 C 
ATOM     15  C   LIG d   1      -2.868  95.801 119.283  0.00  0.00     0.109 C 
ATOM     16  O   LIG d   1      -3.564  93.622 120.035  0.00  0.00    -0.276 OA
ATOM     17  H   LIG d   1      -4.158  95.013 117.261  0.00  0.00     0.149 HD
ENDBRANCH   6  13
BRANCH   5  18
ATOM     18  N   LIG d   1      -3.013  91.507 117.571  0.00  0.00     0.381 N 
ATOM     19  H   LIG d   1      -2.813  90.575 117.266  0.00  0.00    -0.090 HD
ATOM     20  H   LIG d   1      -3.260  91.475 118.544  0.00  0.00    -0.090 HD
ATOM     21  H   LIG d   1      -2.211  92.085 117.443  0.00  0.00    -0.090 HD
ENDBRANCH   5  18
BRANCH   3  22
ATOM     22  C   LIG d   1      -6.810  90.409 114.867  0.00  0.00     0.382 C 
ATOM     23  O   LIG d   1      -6.564  89.180 114.917  0.00  0.00    -0.241 OA
ATOM     24  O   LIG d   1      -7.534  90.853 113.955  0.00  0.00    -0.241 OA
ENDBRANCH   3  22
TORSDOF 7
ENDMDL
MODEL 2
REMARK VINA RESULT:      -5.1      1.643      2.492
REMARK  7 active torsions:
REMARK  status: ('A' for Active; 'I' for Inactive)
REMARK    1  A    between atoms: C_2  and  C_3 
REMARK    2  A    between atoms: C_3  and  O_6 
REMARK    3  A    between atoms: C_3  and  C_4 
REMARK    4  A    between atoms: C_7  and  O_6 
REMARK    5  A    between atoms: C_9  and  C_10 
REMARK    6  A    between atoms: N_15  and  C_14 
REMARK    7  A    between atoms: N_20  and  C_19 
REMARK       I    between atoms: C_22  and  N_20 
ROOT
ATOM      1  C   LIG d   1      -5.000  92.863 116.971  0.00  0.00     0.161 C 
ATOM      2  C   LIG d   1      -6.148  92.205 116.498  0.00  0.00     0.016 C 
ATOM      3  C   LIG d   1      -6.226  90.804 116.325  0.00  0.00     0.038 C 
ATOM      4  C   LIG d   1      -5.205  89.945 116.760  0.00  0.00     0.028 C 
ATOM      5  C   LIG d   1      -3.828  90.600 116.776  0.00  0.00    -0.047 C 
ATOM      6  C   LIG d   1      -3.916  91.933 117.555  0.00  0.00     0.091 C 
ENDROOT
BRANCH   1   7
ATOM      7  O   LIG d   1      -5.375  93.865 117.937  0.00  0.00    -0.368 OA
BRANCH   7   8
ATOM      8  C   LIG d   1      -6.599  93.616 118.671  0.00  0.00     0.119 C 
BRANCH   8   9
ATOM      9  C   LIG d   1      -7.303  94.972 118.870  0.00  0.00     0.028 C 
ATOM     10  C   LIG d   1      -7.581  95.690 117.539  0.00  0.00     0.006 C 
ENDBRANCH   8   9
BRANCH   8  11
ATOM     11  C   LIG d   1      -6.306  93.100 120.083  0.00  0.00     0.028 C 
ATOM     12  C   LIG d   1      -6.564  91.592 120.232  0.00  0.00     0.006 C 
ENDBRANCH   8  11
ENDBRANCH   7   8
ENDBRANCH   1   7
BRANCH   6  13
ATOM     13  N   LIG d   1      -2.631  92.680 117.547  0.00  0.00    -0.311 N 
ATOM     14  C   LIG d   1      -2.086  93.211 118.640  0.00  0.00     0.210 C 
ATOM     15  C   LIG d   1      -0.768  93.957 118.407  0.00  0.00     0.109 C 
ATOM     16  O   LIG d   1      -2.551  93.108 119.785  0.00  0.00    -0.276 OA
ATOM     17  H   LIG d   1      -2.170  92.784 116.665  0.00  0.00     0.149 HD
ENDBRANCH   6  13
BRANCH   5  18
ATOM     18  N   LIG d   1      -2.885  89.640 117.379  0.00  0.00     0.381 N 
ATOM     19  H   LIG d   1      -2.223  90.128 117.949  0.00  0.00    -0.090 HD
ATOM     20  H   LIG d   1      -2.384  89.172 116.644  0.00  0.00    -0.090 HD
ATOM     21  H   LIG d   1      -3.381  88.974 117.930  0.00  0.00    -0.090 HD
ENDBRANCH   5  18
BRANCH   3  22
ATOM     22  C   LIG d   1      -7.319  90.251 115.674  0.00  0.00     0.382 C 
ATOM     23  O   LIG d   1      -7.595  89.038 115.833  0.00  0.00    -0.241 OA
ATOM     24  O   LIG d   1      -8.005  90.940 114.896  0.00  0.00    -0.241 OA
ENDBRANCH   3  22
TORSDOF 7
ENDMDL
MODEL 3
REMARK VINA RESULT:      -5.1      2.367      4.690
REMARK  7 active torsions:
REMARK  status: ('A' for Active; 'I' for Inactive)
REMARK    1  A    between atoms: C_2  and  C_3 
REMARK    2  A    between atoms: C_3  and  O_6 
REMARK    3  A    between atoms: C_3  and  C_4 
REMARK    4  A    between atoms: C_7  and  O_6 
REMARK    5  A    between atoms: C_9  and  C_10 
REMARK    6  A    between atoms: N_15  and  C_14 
REMARK    7  A    between atoms: N_20  and  C_19 
REMARK       I    between atoms: C_22  and  N_20 
ROOT
ATOM      1  C   LIG d   1      -4.473  91.501 117.379  0.00  0.00     0.161 C 
ATOM      2  C   LIG d   1      -4.975  90.728 116.319  0.00  0.00     0.016 C 
ATOM      3  C   LIG d   1      -6.005  91.166 115.456  0.00  0.00     0.038 C 
ATOM      4  C   LIG d   1      -6.503  92.476 115.501  0.00  0.00     0.028 C 
ATOM      5  C   LIG d   1      -6.383  93.123 116.877  0.00  0.00    -0.047 C 
ATOM      6  C   LIG d   1      -4.927  92.976 117.375  0.00  0.00     0.091 C 
ENDROOT
BRANCH   1   7
ATOM      7  O   LIG d   1      -3.034  91.420 117.405  0.00  0.00    -0.368 OA
BRANCH   7   8
ATOM      8  C   LIG d   1      -2.457  90.700 118.522  0.00  0.00     0.119 C 
BRANCH   8   9
ATOM      9  C   LIG d   1      -1.765  89.445 117.956  0.00  0.00     0.028 C 
ATOM     10  C   LIG d   1      -2.659  88.196 118.033  0.00  0.00     0.006 C 
ENDBRANCH   8   9
BRANCH   8  11
ATOM     11  C   LIG d   1      -3.542  90.174 119.467  0.00  0.00     0.028 C 
ATOM     12  C   LIG d   1      -3.421  90.744 120.889  0.00  0.00     0.006 C 
ENDBRANCH   8  11
ENDBRANCH   7   8
ENDBRANCH   1   7
BRANCH   6  13
ATOM     13  N   LIG d   1      -4.741  93.508 118.750  0.00  0.00    -0.311 N 
ATOM     14  C   LIG d   1      -3.722  94.289 119.103  0.00  0.00     0.210 C 
ATOM     15  C   LIG d   1      -3.709  94.710 120.576  0.00  0.00     0.109 C 
ATOM     16  O   LIG d   1      -2.844  94.699 118.329  0.00  0.00    -0.276 OA
ATOM     17  H   LIG d   1      -5.425  93.250 119.435  0.00  0.00     0.149 HD
ENDBRANCH   6  13
BRANCH   5  18
ATOM     18  N   LIG d   1      -6.811  94.529 116.748  0.00  0.00     0.381 N 
ATOM     19  H   LIG d   1      -6.999  94.739 115.788  0.00  0.00    -0.090 HD
ATOM     20  H   LIG d   1      -6.065  95.126 117.061  0.00  0.00    -0.090 HD
ATOM     21  H   LIG d   1      -7.627  94.689 117.297  0.00  0.00    -0.090 HD
ENDBRANCH   5  18
BRANCH   3  22
ATOM     22  C   LIG d   1      -6.576  90.275 114.560  0.00  0.00     0.382 C 
ATOM     23  O   LIG d   1      -6.150  89.097 114.489  0.00  0.00    -0.241 OA
ATOM     24  O   LIG d   1      -7.483  90.646 113.791  0.00  0.00    -0.241 OA
ENDBRANCH   3  22
TORSDOF 7
ENDMDL
MODEL 4
REMARK VINA RESULT:      -5.0     16.427     18.753
REMARK  7 active torsions:
REMARK  status: ('A' for Active; 'I' for Inactive)
REMARK    1  A    between atoms: C_2  and  C_3 
REMARK    2  A    between atoms: C_3  and  O_6 
REMARK    3  A    between atoms: C_3  and  C_4 
REMARK    4  A    between atoms: C_7  and  O_6 
REMARK    5  A    between atoms: C_9  and  C_10 
REMARK    6  A    between atoms: N_15  and  C_14 
REMARK    7  A    between atoms: N_20  and  C_19 
REMARK       I    between atoms: C_22  and  N_20 
ROOT
ATOM      1  C   LIG d   1      -2.288  75.791 116.453  0.00  0.00     0.161 C 
ATOM      2  C   LIG d   1      -2.471  76.826 115.520  0.00  0.00     0.016 C 
ATOM      3  C   LIG d   1      -1.432  77.331 114.705  0.00  0.00     0.038 C 
ATOM      4  C   LIG d   1      -0.166  76.729 114.660  0.00  0.00     0.028 C 
ATOM      5  C   LIG d   1       0.208  76.007 115.949  0.00  0.00    -0.047 C 
ATOM      6  C   LIG d   1      -0.941  75.048 116.338  0.00  0.00     0.091 C 
ENDROOT
BRANCH   1   7
ATOM      7  O   LIG d   1      -3.384  74.859 116.369  0.00  0.00    -0.368 OA
BRANCH   7   8
ATOM      8  C   LIG d   1      -4.614  75.370 115.799  0.00  0.00     0.119 C 
BRANCH   8   9
ATOM      9  C   LIG d   1      -5.753  75.034 116.780  0.00  0.00     0.028 C 
ATOM     10  C   LIG d   1      -6.321  73.622 116.560  0.00  0.00     0.006 C 
ENDBRANCH   8   9
BRANCH   8  11
ATOM     11  C   LIG d   1      -4.970  74.641 114.499  0.00  0.00     0.028 C 
ATOM     12  C   LIG d   1      -5.513  75.587 113.416  0.00  0.00     0.006 C 
ENDBRANCH   8  11
ENDBRANCH   7   8
ENDBRANCH   1   7
BRANCH   6  13
ATOM     13  N   LIG d   1      -0.693  74.363 117.634  0.00  0.00    -0.311 N 
ATOM     14  C   LIG d   1      -0.689  73.039 117.774  0.00  0.00     0.210 C 
ATOM     15  C   LIG d   1      -0.433  72.540 119.199  0.00  0.00     0.109 C 
ATOM     16  O   LIG d   1      -0.841  72.229 116.847  0.00  0.00    -0.276 OA
ATOM     17  H   LIG d   1      -0.530  74.944 118.433  0.00  0.00     0.149 HD
ENDBRANCH   6  13
BRANCH   5  18
ATOM     18  N   LIG d   1       1.487  75.311 115.716  0.00  0.00     0.381 N 
ATOM     19  H   LIG d   1       1.592  75.113 114.741  0.00  0.00    -0.090 HD
ATOM     20  H   LIG d   1       1.480  74.440 116.216  0.00  0.00    -0.090 HD
ATOM     21  H   LIG d   1       2.245  75.876 116.030  0.00  0.00    -0.090 HD
ENDBRANCH   5  18
BRANCH   3  22
ATOM     22  C   LIG d   1      -1.644  78.476 113.953  0.00  0.00     0.382 C 
ATOM     23  O   LIG d   1      -0.669  79.093 113.460  0.00  0.00    -0.241 OA
ATOM     24  O   LIG d   1      -2.796  78.926 113.797  0.00  0.00    -0.241 OA
ENDBRANCH   3  22
TORSDOF 7
ENDMDL
MODEL 5
REMARK VINA RESULT:      -5.0     13.867     16.495
REMARK  7 active torsions:
REMARK  status: ('A' for Active; 'I' for Inactive)
REMARK    1  A    between atoms: C_2  and  C_3 
REMARK    2  A    between atoms: C_3  and  O_6 
REMARK    3  A    between atoms: C_3  and  C_4 
REMARK    4  A    between atoms: C_7  and  O_6 
REMARK    5  A    between atoms: C_9  and  C_10 
REMARK    6  A    between atoms: N_15  and  C_14 
REMARK    7  A    between atoms: N_20  and  C_19 
REMARK       I    between atoms: C_22  and  N_20 
ROOT
ATOM      1  C   LIG d   1      -6.060  77.450 117.003  0.00  0.00     0.161 C 
ATOM      2  C   LIG d   1      -7.362  77.970 117.091  0.00  0.00     0.016 C 
ATOM      3  C   LIG d   1      -7.697  79.100 117.873  0.00  0.00     0.038 C 
ATOM      4  C   LIG d   1      -6.718  79.881 118.505  0.00  0.00     0.028 C 
ATOM      5  C   LIG d   1      -5.455  79.102 118.856  0.00  0.00    -0.047 C 
ATOM      6  C   LIG d   1      -4.960  78.355 117.596  0.00  0.00     0.091 C 
ENDROOT
BRANCH   1   7
ATOM      7  O   LIG d   1      -5.756  77.125 115.632  0.00  0.00    -0.368 OA
BRANCH   7   8
ATOM      8  C   LIG d   1      -6.044  75.766 115.220  0.00  0.00     0.119 C 
BRANCH   8   9
ATOM      9  C   LIG d   1      -5.556  74.828 116.341  0.00  0.00     0.028 C 
ATOM     10  C   LIG d   1      -6.544  73.684 116.621  0.00  0.00     0.006 C 
ENDBRANCH   8   9
BRANCH   8  11
ATOM     11  C   LIG d   1      -5.233  75.375 113.981  0.00  0.00     0.028 C 
ATOM     12  C   LIG d   1      -3.833  76.009 113.961  0.00  0.00     0.006 C 
ENDBRANCH   8  11
ENDBRANCH   7   8
ENDBRANCH   1   7
BRANCH   6  13
ATOM     13  N   LIG d   1      -3.776  77.500 117.873  0.00  0.00    -0.311 N 
ATOM     14  C   LIG d   1      -2.641  77.574 117.179  0.00  0.00     0.210 C 
ATOM     15  C   LIG d   1      -1.552  76.589 117.616  0.00  0.00     0.109 C 
ATOM     16  O   LIG d   1      -2.422  78.383 116.265  0.00  0.00    -0.276 OA
ATOM     17  H   LIG d   1      -3.856  76.837 118.618  0.00  0.00     0.149 HD
ENDBRANCH   6  13
BRANCH   5  18
ATOM     18  N   LIG d   1      -4.469  80.065 119.382  0.00  0.00     0.381 N 
ATOM     19  H   LIG d   1      -3.842  79.600 120.007  0.00  0.00    -0.090 HD
ATOM     20  H   LIG d   1      -4.955  80.779 119.895  0.00  0.00    -0.090 HD
ATOM     21  H   LIG d   1      -3.959  80.474 118.631  0.00  0.00    -0.090 HD
ENDBRANCH   5  18
BRANCH   3  22
ATOM     22  C   LIG d   1      -9.030  79.434 118.061  0.00  0.00     0.382 C 
ATOM     23  O   LIG d   1      -9.876  78.536 118.287  0.00  0.00    -0.241 OA
ATOM     24  O   LIG d   1      -9.403  80.618 117.964  0.00  0.00    -0.241 OA
ENDBRANCH   3  22
TORSDOF 7
ENDMDL
MODEL 6
REMARK VINA RESULT:      -5.0     16.620     18.982
REMARK  7 active torsions:
REMARK  status: ('A' for Active; 'I' for Inactive)
REMARK    1  A    between atoms: C_2  and  C_3 
REMARK    2  A    between atoms: C_3  and  O_6 
REMARK    3  A    between atoms: C_3  and  C_4 
REMARK    4  A    between atoms: C_7  and  O_6 
REMARK    5  A    between atoms: C_9  and  C_10 
REMARK    6  A    between atoms: N_15  and  C_14 
REMARK    7  A    between atoms: N_20  and  C_19 
REMARK       I    between atoms: C_22  and  N_20 
ROOT
ATOM      1  C   LIG d   1      -2.720  74.383 116.222  0.00  0.00     0.161 C 
ATOM      2  C   LIG d   1      -1.739  75.200 115.636  0.00  0.00     0.016 C 
ATOM      3  C   LIG d   1      -1.994  76.065 114.547  0.00  0.00     0.038 C 
ATOM      4  C   LIG d   1      -3.293  76.284 114.064  0.00  0.00     0.028 C 
ATOM      5  C   LIG d   1      -4.231  75.104 114.292  0.00  0.00    -0.047 C 
ATOM      6  C   LIG d   1      -4.166  74.691 115.780  0.00  0.00     0.091 C 
ENDROOT
BRANCH   1   7
ATOM      7  O   LIG d   1      -2.611  74.442 117.658  0.00  0.00    -0.368 OA
BRANCH   7   8
ATOM      8  C   LIG d   1      -2.077  75.671 118.207  0.00  0.00     0.119 C 
BRANCH   8   9
ATOM      9  C   LIG d   1      -1.305  75.308 119.491  0.00  0.00     0.028 C 
ATOM     10  C   LIG d   1      -1.258  73.790 119.737  0.00  0.00     0.006 C 
ENDBRANCH   8   9
BRANCH   8  11
ATOM     11  C   LIG d   1      -3.197  76.612 118.660  0.00  0.00     0.028 C 
ATOM     12  C   LIG d   1      -3.358  77.833 117.740  0.00  0.00     0.006 C 
ENDBRANCH   8  11
ENDBRANCH   7   8
ENDBRANCH   1   7
BRANCH   6  13
ATOM     13  N   LIG d   1      -4.991  73.490 116.072  0.00  0.00    -0.311 N 
ATOM     14  C   LIG d   1      -6.240  73.553 116.531  0.00  0.00     0.210 C 
ATOM     15  C   LIG d   1      -6.904  72.196 116.785  0.00  0.00     0.109 C 
ATOM     16  O   LIG d   1      -6.871  74.603 116.723  0.00  0.00    -0.276 OA
ATOM     17  H   LIG d   1      -4.568  72.597 115.915  0.00  0.00     0.149 HD
ENDBRANCH   6  13
BRANCH   5  18
ATOM     18  N   LIG d   1      -5.581  75.520 113.866  0.00  0.00     0.381 N 
ATOM     19  H   LIG d   1      -5.515  76.301 113.245  0.00  0.00    -0.090 HD
ATOM     20  H   LIG d   1      -6.104  75.804 114.676  0.00  0.00    -0.090 HD
ATOM     21  H   LIG d   1      -6.043  74.763 113.411  0.00  0.00    -0.090 HD
ENDBRANCH   5  18
BRANCH   3  22
ATOM     22  C   LIG d   1      -0.937  76.690 113.904  0.00  0.00     0.382 C 
ATOM     23  O   LIG d   1       0.244  76.397 114.208  0.00  0.00    -0.241 OA
ATOM     24  O   LIG d   1      -1.150  77.577 113.055  0.00  0.00    -0.241 OA
ENDBRANCH   3  22
TORSDOF 7
ENDMDL
MODEL 7
REMARK VINA RESULT:      -5.0      2.655      4.875
REMARK  7 active torsions:
REMARK  status: ('A' for Active; 'I' for Inactive)
REMARK    1  A    between atoms: C_2  and  C_3 
REMARK    2  A    between atoms: C_3  and  O_6 
REMARK    3  A    between atoms: C_3  and  C_4 
REMARK    4  A    between atoms: C_7  and  O_6 
REMARK    5  A    between atoms: C_9  and  C_10 
REMARK    6  A    between atoms: N_15  and  C_14 
REMARK    7  A    between atoms: N_20  and  C_19 
REMARK       I    between atoms: C_22  and  N_20 
ROOT
ATOM      1  C   LIG d   1      -6.070  90.886 118.252  0.00  0.00     0.161 C 
ATOM      2  C   LIG d   1      -5.007  90.522 119.094  0.00  0.00     0.016 C 
ATOM      3  C   LIG d   1      -3.887  89.778 118.657  0.00  0.00     0.038 C 
ATOM      4  C   LIG d   1      -3.680  89.477 117.302  0.00  0.00     0.028 C 
ATOM      5  C   LIG d   1      -4.973  89.386 116.498  0.00  0.00    -0.047 C 
ATOM      6  C   LIG d   1      -5.809  90.662 116.747  0.00  0.00     0.091 C 
ENDROOT
BRANCH   1   7
ATOM      7  O   LIG d   1      -6.440  92.258 118.497  0.00  0.00    -0.368 OA
BRANCH   7   8
ATOM      8  C   LIG d   1      -5.829  93.247 117.632  0.00  0.00     0.119 C 
BRANCH   8   9
ATOM      9  C   LIG d   1      -4.814  94.038 118.479  0.00  0.00     0.028 C 
ATOM     10  C   LIG d   1      -3.360  93.763 118.061  0.00  0.00     0.006 C 
ENDBRANCH   8   9
BRANCH   8  11
ATOM     11  C   LIG d   1      -6.855  94.281 117.158  0.00  0.00     0.028 C 
ATOM     12  C   LIG d   1      -7.053  95.428 118.161  0.00  0.00     0.006 C 
ENDBRANCH   8  11
ENDBRANCH   7   8
ENDBRANCH   1   7
BRANCH   6  13
ATOM     13  N   LIG d   1      -7.128  90.618 116.064  0.00  0.00    -0.311 N 
ATOM     14  C   LIG d   1      -7.361  91.187 114.882  0.00  0.00     0.210 C 
ATOM     15  C   LIG d   1      -8.796  91.040 114.365  0.00  0.00     0.109 C 
ATOM     16  O   LIG d   1      -6.508  91.772 114.198  0.00  0.00    -0.276 OA
ATOM     17  H   LIG d   1      -7.870  90.137 116.534  0.00  0.00     0.149 HD
ENDBRANCH   6  13
BRANCH   5  18
ATOM     18  N   LIG d   1      -4.604  89.204 115.081  0.00  0.00     0.381 N 
ATOM     19  H   LIG d   1      -4.739  90.062 114.583  0.00  0.00    -0.090 HD
ATOM     20  H   LIG d   1      -5.204  88.507 114.676  0.00  0.00    -0.090 HD
ATOM     21  H   LIG d   1      -3.653  88.917 115.010  0.00  0.00    -0.090 HD
ENDBRANCH   5  18
BRANCH   3  22
ATOM     22  C   LIG d   1      -2.978  89.294 119.585  0.00  0.00     0.382 C 
ATOM     23  O   LIG d   1      -2.975  88.075 119.882  0.00  0.00    -0.241 OA
ATOM     24  O   LIG d   1      -2.191  90.068 120.162  0.00  0.00    -0.241 OA
ENDBRANCH   3  22
TORSDOF 7
ENDMDL
MODEL 8
REMARK VINA RESULT:      -4.8      2.761      6.613
REMARK  7 active torsions:
REMARK  status: ('A' for Active; 'I' for Inactive)
REMARK    1  A    between atoms: C_2  and  C_3 
REMARK    2  A    between atoms: C_3  and  O_6 
REMARK    3  A    between atoms: C_3  and  C_4 
REMARK    4  A    between atoms: C_7  and  O_6 
REMARK    5  A    between atoms: C_9  and  C_10 
REMARK    6  A    between atoms: N_15  and  C_14 
REMARK    7  A    between atoms: N_20  and  C_19 
REMARK       I    between atoms: C_22  and  N_20 
ROOT
ATOM      1  C   LIG d   1      -3.034  91.798 117.391  0.00  0.00     0.161 C 
ATOM      2  C   LIG d   1      -2.954  92.970 118.160  0.00  0.00     0.016 C 
ATOM      3  C   LIG d   1      -4.045  93.847 118.359  0.00  0.00     0.038 C 
ATOM      4  C   LIG d   1      -5.340  93.529 117.924  0.00  0.00     0.028 C 
ATOM      5  C   LIG d   1      -5.362  92.604 116.712  0.00  0.00    -0.047 C 
ATOM      6  C   LIG d   1      -4.467  91.377 117.001  0.00  0.00     0.091 C 
ENDROOT
BRANCH   1   7
ATOM      7  O   LIG d   1      -2.364  90.719 118.073  0.00  0.00    -0.368 OA
BRANCH   7   8
ATOM      8  C   LIG d   1      -3.091  90.107 119.167  0.00  0.00     0.119 C 
BRANCH   8   9
ATOM      9  C   LIG d   1      -2.243  90.282 120.441  0.00  0.00     0.028 C 
ATOM     10  C   LIG d   1      -0.769  90.591 120.128  0.00  0.00     0.006 C 
ENDBRANCH   8   9
BRANCH   8  11
ATOM     11  C   LIG d   1      -3.222  88.594 118.971  0.00  0.00     0.028 C 
ATOM     12  C   LIG d   1      -2.403  88.074 117.779  0.00  0.00     0.006 C 
ENDBRANCH   8  11
ENDBRANCH   7   8
ENDBRANCH   1   7
BRANCH   6  13
ATOM     13  N   LIG d   1      -4.365  90.463 115.834  0.00  0.00    -0.311 N 
ATOM     14  C   LIG d   1      -5.145  89.396 115.668  0.00  0.00     0.210 C 
ATOM     15  C   LIG d   1      -4.860  88.576 114.406  0.00  0.00     0.109 C 
ATOM     16  O   LIG d   1      -6.068  89.070 116.430  0.00  0.00    -0.276 OA
ATOM     17  H   LIG d   1      -3.663  90.671 115.151  0.00  0.00     0.149 HD
ENDBRANCH   6  13
BRANCH   5  18
ATOM     18  N   LIG d   1      -6.768  92.245 116.450  0.00  0.00     0.381 N 
ATOM     19  H   LIG d   1      -7.372  92.956 116.811  0.00  0.00    -0.090 HD
ATOM     20  H   LIG d   1      -6.977  91.384 116.924  0.00  0.00    -0.090 HD
ATOM     21  H   LIG d   1      -6.917  92.138 115.471  0.00  0.00    -0.090 HD
ENDBRANCH   5  18
BRANCH   3  22
ATOM     22  C   LIG d   1      -3.837  95.076 118.966  0.00  0.00     0.382 C 
ATOM     23  O   LIG d   1      -4.788  95.887 119.083  0.00  0.00    -0.241 OA
ATOM     24  O   LIG d   1      -2.701  95.403 119.359  0.00  0.00    -0.241 OA
ENDBRANCH   3  22
TORSDOF 7
ENDMDL
MODEL 9
REMARK VINA RESULT:      -4.8     16.286     18.592
REMARK  7 active torsions:
REMARK  status: ('A' for Active; 'I' for Inactive)
REMARK    1  A    between atoms: C_2  and  C_3 
REMARK    2  A    between atoms: C_3  and  O_6 
REMARK    3  A    between atoms: C_3  and  C_4 
REMARK    4  A    between atoms: C_7  and  O_6 
REMARK    5  A    between atoms: C_9  and  C_10 
REMARK    6  A    between atoms: N_15  and  C_14 
REMARK    7  A    between atoms: N_20  and  C_19 
REMARK       I    between atoms: C_22  and  N_20 
ROOT
ATOM      1  C   LIG d   1      -0.744  76.017 115.635  0.00  0.00     0.161 C 
ATOM      2  C   LIG d   1      -1.998  76.117 115.010  0.00  0.00     0.016 C 
ATOM      3  C   LIG d   1      -2.998  75.123 115.108  0.00  0.00     0.038 C 
ATOM      4  C   LIG d   1      -2.867  74.022 115.968  0.00  0.00     0.028 C 
ATOM      5  C   LIG d   1      -1.418  73.624 116.227  0.00  0.00    -0.047 C 
ATOM      6  C   LIG d   1      -0.625  74.876 116.667  0.00  0.00     0.091 C 
ENDROOT
BRANCH   1   7
ATOM      7  O   LIG d   1      -0.397  77.278 116.240  0.00  0.00    -0.368 OA
BRANCH   7   8
ATOM      8  C   LIG d   1      -0.940  77.522 117.561  0.00  0.00     0.119 C 
BRANCH   8   9
ATOM      9  C   LIG d   1      -1.865  78.750 117.462  0.00  0.00     0.028 C 
ATOM     10  C   LIG d   1      -3.350  78.380 117.608  0.00  0.00     0.006 C 
ENDBRANCH   8   9
BRANCH   8  11
ATOM     11  C   LIG d   1       0.160  77.920 118.550  0.00  0.00     0.028 C 
ATOM     12  C   LIG d   1       1.535  78.074 117.882  0.00  0.00     0.006 C 
ENDBRANCH   8  11
ENDBRANCH   7   8
ENDBRANCH   1   7
BRANCH   6  13
ATOM     13  N   LIG d   1       0.821  74.592 116.859  0.00  0.00    -0.311 N 
ATOM     14  C   LIG d   1       1.369  74.350 118.049  0.00  0.00     0.210 C 
ATOM     15  C   LIG d   1       2.881  74.101 118.026  0.00  0.00     0.109 C 
ATOM     16  O   LIG d   1       0.742  74.287 119.116  0.00  0.00    -0.276 OA
ATOM     17  H   LIG d   1       1.399  74.593 116.041  0.00  0.00     0.149 HD
ENDBRANCH   6  13
BRANCH   5  18
ATOM     18  N   LIG d   1      -1.424  72.556 117.244  0.00  0.00     0.381 N 
ATOM     19  H   LIG d   1      -1.329  72.957 118.156  0.00  0.00    -0.090 HD
ATOM     20  H   LIG d   1      -0.639  71.950 117.083  0.00  0.00    -0.090 HD
ATOM     21  H   LIG d   1      -2.271  72.036 117.188  0.00  0.00    -0.090 HD
ENDBRANCH   5  18
BRANCH   3  22
ATOM     22  C   LIG d   1      -4.129  75.204 114.310  0.00  0.00     0.382 C 
ATOM     23  O   LIG d   1      -4.669  74.156 113.880  0.00  0.00    -0.241 OA
ATOM     24  O   LIG d   1      -4.589  76.312 113.978  0.00  0.00    -0.241 OA
ENDBRANCH   3  22
TORSDOF 7
ENDMDL
