MODEL 1
REMARK VINA RESULT:      -5.5      0.000      0.000
REMARK  7 active torsions:
REMARK  status: ('A' for Active; 'I' for Inactive)
REMARK    1  A    between atoms: C_2  and  C_3 
REMARK    2  A    between atoms: C_3  and  O_6 
REMARK    3  A    between atoms: C_3  and  C_4 
REMARK    4  A    between atoms: C_7  and  O_6 
REMARK    5  A    between atoms: C_9  and  C_10 
REMARK    6  A    between atoms: N_15  and  C_14 
REMARK    7  A    between atoms: N_20  and  C_19 
REMARK       I    between atoms: C_22  and  N_20 
ROOT
ATOM      1  C   LIG d   1      -5.044  93.056 118.159  0.00  0.00     0.161 C 
ATOM      2  C   LIG d   1      -6.223  93.820 118.134  0.00  0.00     0.016 C 
ATOM      3  C   LIG d   1      -6.347  95.079 118.764  0.00  0.00     0.038 C 
ATOM      4  C   LIG d   1      -5.246  95.734 119.337  0.00  0.00     0.028 C 
ATOM      5  C   LIG d   1      -4.162  94.780 119.826  0.00  0.00    -0.047 C 
ATOM      6  C   LIG d   1      -3.800  93.803 118.684  0.00  0.00     0.091 C 
ENDROOT
BRANCH   1   7
ATOM      7  O   LIG d   1      -4.786  92.512 116.849  0.00  0.00    -0.368 OA
BRANCH   7   8
ATOM      8  C   LIG d   1      -5.022  91.091 116.691  0.00  0.00     0.119 C 
BRANCH   8   9
ATOM      9  C   LIG d   1      -3.662  90.425 116.406  0.00  0.00     0.028 C 
ATOM     10  C   LIG d   1      -3.783  88.905 116.208  0.00  0.00     0.006 C 
ENDBRANCH   8   9
BRANCH   8  11
ATOM     11  C   LIG d   1      -5.882  90.803 115.457  0.00  0.00     0.028 C 
ATOM     12  C   LIG d   1      -6.165  92.061 114.622  0.00  0.00     0.006 C 
ENDBRANCH   8  11
ENDBRANCH   7   8
ENDBRANCH   1   7
BRANCH   6  13
ATOM     13  N   LIG d   1      -2.806  92.781 119.106  0.00  0.00    -0.311 N 
ATOM     14  C   LIG d   1      -1.644  92.588 118.484  0.00  0.00     0.210 C 
ATOM     15  C   LIG d   1      -0.776  91.470 119.069  0.00  0.00     0.109 C 
ATOM     16  O   LIG d   1      -1.236  93.259 117.523  0.00  0.00    -0.276 OA
ATOM     17  H   LIG d   1      -3.043  92.214 119.896  0.00  0.00     0.149 HD
ENDBRANCH   6  13
BRANCH   5  18
ATOM     18  N   LIG d   1      -3.018  95.597 120.272  0.00  0.00     0.381 N 
ATOM     19  H   LIG d   1      -3.159  95.890 121.218  0.00  0.00    -0.090 HD
ATOM     20  H   LIG d   1      -2.958  96.416 119.694  0.00  0.00    -0.090 HD
ATOM     21  H   LIG d   1      -2.175  95.070 120.202  0.00  0.00    -0.090 HD
ENDBRANCH   5  18
BRANCH   3  22
ATOM     22  C   LIG d   1      -7.593  95.680 118.859  0.00  0.00     0.382 C 
ATOM     23  O   LIG d   1      -7.704  96.813 119.387  0.00  0.00    -0.241 OA
ATOM     24  O   LIG d   1      -8.613  95.085 118.464  0.00  0.00    -0.241 OA
ENDBRANCH   3  22
TORSDOF 7
ENDMDL
MODEL 2
REMARK VINA RESULT:      -5.5      2.682      6.397
REMARK  7 active torsions:
REMARK  status: ('A' for Active; 'I' for Inactive)
REMARK    1  A    between atoms: C_2  and  C_3 
REMARK    2  A    between atoms: C_3  and  O_6 
REMARK    3  A    between atoms: C_3  and  C_4 
REMARK    4  A    between atoms: C_7  and  O_6 
REMARK    5  A    between atoms: C_9  and  C_10 
REMARK    6  A    between atoms: N_15  and  C_14 
REMARK    7  A    between atoms: N_20  and  C_19 
REMARK       I    between atoms: C_22  and  N_20 
ROOT
ATOM      1  C   LIG d   1      -3.572  90.269 117.237  0.00  0.00     0.161 C 
ATOM      2  C   LIG d   1      -3.391  89.200 116.343  0.00  0.00     0.016 C 
ATOM      3  C   LIG d   1      -4.346  88.830 115.368  0.00  0.00     0.038 C 
ATOM      4  C   LIG d   1      -5.490  89.604 115.120  0.00  0.00     0.028 C 
ATOM      5  C   LIG d   1      -5.959  90.398 116.334  0.00  0.00    -0.047 C 
ATOM      6  C   LIG d   1      -4.763  91.193 116.907  0.00  0.00     0.091 C 
ENDROOT
BRANCH   1   7
ATOM      7  O   LIG d   1      -2.355  91.036 117.334  0.00  0.00    -0.368 OA
BRANCH   7   8
ATOM      8  C   LIG d   1      -1.645  90.946 118.594  0.00  0.00     0.119 C 
BRANCH   8   9
ATOM      9  C   LIG d   1      -1.473  92.380 119.131  0.00  0.00     0.028 C 
ATOM     10  C   LIG d   1      -1.812  93.447 118.077  0.00  0.00     0.006 C 
ENDBRANCH   8   9
BRANCH   8  11
ATOM     11  C   LIG d   1      -0.223  90.414 118.395  0.00  0.00     0.028 C 
ATOM     12  C   LIG d   1       0.227  90.451 116.926  0.00  0.00     0.006 C 
ENDBRANCH   8  11
ENDBRANCH   7   8
ENDBRANCH   1   7
BRANCH   6  13
ATOM     13  N   LIG d   1      -5.116  91.932 118.147  0.00  0.00    -0.311 N 
ATOM     14  C   LIG d   1      -5.675  93.140 118.147  0.00  0.00     0.210 C 
ATOM     15  C   LIG d   1      -5.938  93.732 119.535  0.00  0.00     0.109 C 
ATOM     16  O   LIG d   1      -6.008  93.765 117.128  0.00  0.00    -0.276 OA
ATOM     17  H   LIG d   1      -4.909  91.485 119.019  0.00  0.00     0.149 HD
ENDBRANCH   6  13
BRANCH   5  18
ATOM     18  N   LIG d   1      -7.072  91.263 115.898  0.00  0.00     0.381 N 
ATOM     19  H   LIG d   1      -7.066  92.114 116.424  0.00  0.00    -0.090 HD
ATOM     20  H   LIG d   1      -7.940  90.789 116.075  0.00  0.00    -0.090 HD
ATOM     21  H   LIG d   1      -6.987  91.464 114.926  0.00  0.00    -0.090 HD
ENDBRANCH   5  18
BRANCH   3  22
ATOM     22  C   LIG d   1      -4.181  87.652 114.657  0.00  0.00     0.382 C 
ATOM     23  O   LIG d   1      -4.362  87.638 113.415  0.00  0.00    -0.241 OA
ATOM     24  O   LIG d   1      -3.896  86.592 115.247  0.00  0.00    -0.241 OA
ENDBRANCH   3  22
TORSDOF 7
ENDMDL
MODEL 3
REMARK VINA RESULT:      -5.5      2.305      5.055
REMARK  7 active torsions:
REMARK  status: ('A' for Active; 'I' for Inactive)
REMARK    1  A    between atoms: C_2  and  C_3 
REMARK    2  A    between atoms: C_3  and  O_6 
REMARK    3  A    between atoms: C_3  and  C_4 
REMARK    4  A    between atoms: C_7  and  O_6 
REMARK    5  A    between atoms: C_9  and  C_10 
REMARK    6  A    between atoms: N_15  and  C_14 
REMARK    7  A    between atoms: N_20  and  C_19 
REMARK       I    between atoms: C_22  and  N_20 
ROOT
ATOM      1  C   LIG d   1      -4.101  92.437 117.023  0.00  0.00     0.161 C 
ATOM      2  C   LIG d   1      -5.310  91.822 116.658  0.00  0.00     0.016 C 
ATOM      3  C   LIG d   1      -5.414  90.456 116.310  0.00  0.00     0.038 C 
ATOM      4  C   LIG d   1      -4.334  89.571 116.450  0.00  0.00     0.028 C 
ATOM      5  C   LIG d   1      -2.974  90.250 116.332  0.00  0.00    -0.047 C 
ATOM      6  C   LIG d   1      -2.934  91.463 117.290  0.00  0.00     0.091 C 
ENDROOT
BRANCH   1   7
ATOM      7  O   LIG d   1      -4.312  93.290 118.165  0.00  0.00    -0.368 OA
BRANCH   7   8
ATOM      8  C   LIG d   1      -5.677  93.393 118.641  0.00  0.00     0.119 C 
BRANCH   8   9
ATOM      9  C   LIG d   1      -6.088  94.875 118.551  0.00  0.00     0.028 C 
ATOM     10  C   LIG d   1      -7.601  95.077 118.738  0.00  0.00     0.006 C 
ENDBRANCH   8   9
BRANCH   8  11
ATOM     11  C   LIG d   1      -5.778  93.033 120.126  0.00  0.00     0.028 C 
ATOM     12  C   LIG d   1      -4.790  91.931 120.541  0.00  0.00     0.006 C 
ENDBRANCH   8  11
ENDBRANCH   7   8
ENDBRANCH   1   7
BRANCH   6  13
ATOM     13  N   LIG d   1      -1.669  92.234 117.175  0.00  0.00    -0.311 N 
ATOM     14  C   LIG d   1      -0.845  92.447 118.199  0.00  0.00     0.210 C 
ATOM     15  C   LIG d   1       0.395  93.284 117.869  0.00  0.00     0.109 C 
ATOM     16  O   LIG d   1      -1.007  91.996 119.343  0.00  0.00    -0.276 OA
ATOM     17  H   LIG d   1      -1.444  92.610 116.275  0.00  0.00     0.149 HD
ENDBRANCH   6  13
BRANCH   5  18
ATOM     18  N   LIG d   1      -1.943  89.239 116.635  0.00  0.00     0.381 N 
ATOM     19  H   LIG d   1      -2.267  88.634 117.362  0.00  0.00    -0.090 HD
ATOM     20  H   LIG d   1      -1.115  89.707 116.959  0.00  0.00    -0.090 HD
ATOM     21  H   LIG d   1      -1.736  88.708 115.818  0.00  0.00    -0.090 HD
ENDBRANCH   5  18
BRANCH   3  22
ATOM     22  C   LIG d   1      -6.598  89.971 115.777  0.00  0.00     0.382 C 
ATOM     23  O   LIG d   1      -7.448  90.767 115.309  0.00  0.00    -0.241 OA
ATOM     24  O   LIG d   1      -6.847  88.751 115.798  0.00  0.00    -0.241 OA
ENDBRANCH   3  22
TORSDOF 7
ENDMDL
MODEL 4
REMARK VINA RESULT:      -5.3      3.264      5.541
REMARK  7 active torsions:
REMARK  status: ('A' for Active; 'I' for Inactive)
REMARK    1  A    between atoms: C_2  and  C_3 
REMARK    2  A    between atoms: C_3  and  O_6 
REMARK    3  A    between atoms: C_3  and  C_4 
REMARK    4  A    between atoms: C_7  and  O_6 
REMARK    5  A    between atoms: C_9  and  C_10 
REMARK    6  A    between atoms: N_15  and  C_14 
REMARK    7  A    between atoms: N_20  and  C_19 
REMARK       I    between atoms: C_22  and  N_20 
ROOT
ATOM      1  C   LIG d   1      -3.125  90.805 117.090  0.00  0.00     0.161 C 
ATOM      2  C   LIG d   1      -4.168  91.653 116.682  0.00  0.00     0.016 C 
ATOM      3  C   LIG d   1      -5.158  91.275 115.748  0.00  0.00     0.038 C 
ATOM      4  C   LIG d   1      -5.261  89.961 115.267  0.00  0.00     0.028 C 
ATOM      5  C   LIG d   1      -3.933  89.212 115.262  0.00  0.00    -0.047 C 
ATOM      6  C   LIG d   1      -3.285  89.331 116.661  0.00  0.00     0.091 C 
ENDROOT
BRANCH   1   7
ATOM      7  O   LIG d   1      -2.951  90.895 118.518  0.00  0.00    -0.368 OA
BRANCH   7   8
ATOM      8  C   LIG d   1      -3.472  92.090 119.149  0.00  0.00     0.119 C 
BRANCH   8   9
ATOM      9  C   LIG d   1      -2.268  92.949 119.581  0.00  0.00     0.028 C 
ATOM     10  C   LIG d   1      -1.961  94.075 118.579  0.00  0.00     0.006 C 
ENDBRANCH   8   9
BRANCH   8  11
ATOM     11  C   LIG d   1      -4.217  91.756 120.445  0.00  0.00     0.028 C 
ATOM     12  C   LIG d   1      -5.450  92.646 120.670  0.00  0.00     0.006 C 
ENDBRANCH   8  11
ENDBRANCH   7   8
ENDBRANCH   1   7
BRANCH   6  13
ATOM     13  N   LIG d   1      -1.942  88.698 116.719  0.00  0.00    -0.311 N 
ATOM     14  C   LIG d   1      -1.739  87.447 117.129  0.00  0.00     0.210 C 
ATOM     15  C   LIG d   1      -0.274  86.997 117.130  0.00  0.00     0.109 C 
ATOM     16  O   LIG d   1      -2.635  86.657 117.461  0.00  0.00    -0.276 OA
ATOM     17  H   LIG d   1      -1.161  89.257 116.437  0.00  0.00     0.149 HD
ENDBRANCH   6  13
BRANCH   5  18
ATOM     18  N   LIG d   1      -4.209  87.817 114.870  0.00  0.00     0.381 N 
ATOM     19  H   LIG d   1      -3.400  87.421 114.435  0.00  0.00    -0.090 HD
ATOM     20  H   LIG d   1      -4.961  87.810 114.204  0.00  0.00    -0.090 HD
ATOM     21  H   LIG d   1      -4.460  87.281 115.671  0.00  0.00    -0.090 HD
ENDBRANCH   5  18
BRANCH   3  22
ATOM     22  C   LIG d   1      -6.036  92.228 115.253  0.00  0.00     0.382 C 
ATOM     23  O   LIG d   1      -6.026  92.516 114.032  0.00  0.00    -0.241 OA
ATOM     24  O   LIG d   1      -6.808  92.834 116.021  0.00  0.00    -0.241 OA
ENDBRANCH   3  22
TORSDOF 7
ENDMDL
MODEL 5
REMARK VINA RESULT:      -5.2     15.353     18.358
REMARK  7 active torsions:
REMARK  status: ('A' for Active; 'I' for Inactive)
REMARK    1  A    between atoms: C_2  and  C_3 
REMARK    2  A    between atoms: C_3  and  O_6 
REMARK    3  A    between atoms: C_3  and  C_4 
REMARK    4  A    between atoms: C_7  and  O_6 
REMARK    5  A    between atoms: C_9  and  C_10 
REMARK    6  A    between atoms: N_15  and  C_14 
REMARK    7  A    between atoms: N_20  and  C_19 
REMARK       I    between atoms: C_22  and  N_20 
ROOT
ATOM      1  C   LIG d   1      -2.818  75.756 118.603  0.00  0.00     0.161 C 
ATOM      2  C   LIG d   1      -1.668  75.722 119.409  0.00  0.00     0.016 C 
ATOM      3  C   LIG d   1      -0.417  75.241 118.959  0.00  0.00     0.038 C 
ATOM      4  C   LIG d   1      -0.193  74.900 117.617  0.00  0.00     0.028 C 
ATOM      5  C   LIG d   1      -1.452  74.442 116.890  0.00  0.00    -0.047 C 
ATOM      6  C   LIG d   1      -2.566  75.493 117.103  0.00  0.00     0.091 C 
ENDROOT
BRANCH   1   7
ATOM      7  O   LIG d   1      -3.503  77.012 118.782  0.00  0.00    -0.368 OA
BRANCH   7   8
ATOM      8  C   LIG d   1      -3.242  77.709 120.025  0.00  0.00     0.119 C 
BRANCH   8   9
ATOM      9  C   LIG d   1      -4.597  78.189 120.580  0.00  0.00     0.028 C 
ATOM     10  C   LIG d   1      -4.607  79.697 120.880  0.00  0.00     0.006 C 
ENDBRANCH   8   9
BRANCH   8  11
ATOM     11  C   LIG d   1      -2.426  78.983 119.789  0.00  0.00     0.028 C 
ATOM     12  C   LIG d   1      -1.071  78.965 120.515  0.00  0.00     0.006 C 
ENDBRANCH   8  11
ENDBRANCH   7   8
ENDBRANCH   1   7
BRANCH   6  13
ATOM     13  N   LIG d   1      -3.858  75.081 116.495  0.00  0.00    -0.311 N 
ATOM     14  C   LIG d   1      -4.172  75.304 115.220  0.00  0.00     0.210 C 
ATOM     15  C   LIG d   1      -5.562  74.817 114.802  0.00  0.00     0.109 C 
ATOM     16  O   LIG d   1      -3.418  75.831 114.388  0.00  0.00    -0.276 OA
ATOM     17  H   LIG d   1      -4.516  74.619 117.091  0.00  0.00     0.149 HD
ENDBRANCH   6  13
BRANCH   5  18
ATOM     18  N   LIG d   1      -1.102  74.251 115.469  0.00  0.00     0.381 N 
ATOM     19  H   LIG d   1      -1.717  73.578 115.057  0.00  0.00    -0.090 HD
ATOM     20  H   LIG d   1      -0.163  73.899 115.410  0.00  0.00    -0.090 HD
ATOM     21  H   LIG d   1      -1.171  75.117 114.982  0.00  0.00    -0.090 HD
ENDBRANCH   5  18
BRANCH   3  22
ATOM     22  C   LIG d   1       0.616  75.060 119.866  0.00  0.00     0.382 C 
ATOM     23  O   LIG d   1       0.404  74.452 120.943  0.00  0.00    -0.241 OA
ATOM     24  O   LIG d   1       1.745  75.535 119.641  0.00  0.00    -0.241 OA
ENDBRANCH   3  22
TORSDOF 7
ENDMDL
MODEL 6
REMARK VINA RESULT:      -5.2      2.869      6.076
REMARK  7 active torsions:
REMARK  status: ('A' for Active; 'I' for Inactive)
REMARK    1  A    between atoms: C_2  and  C_3 
REMARK    2  A    between atoms: C_3  and  O_6 
REMARK    3  A    between atoms: C_3  and  C_4 
REMARK    4  A    between atoms: C_7  and  O_6 
REMARK    5  A    between atoms: C_9  and  C_10 
REMARK    6  A    between atoms: N_15  and  C_14 
REMARK    7  A    between atoms: N_20  and  C_19 
REMARK       I    between atoms: C_22  and  N_20 
ROOT
ATOM      1  C   LIG d   1      -3.985  90.292 117.341  0.00  0.00     0.161 C 
ATOM      2  C   LIG d   1      -3.856  89.212 116.451  0.00  0.00     0.016 C 
ATOM      3  C   LIG d   1      -4.623  89.082 115.270  0.00  0.00     0.038 C 
ATOM      4  C   LIG d   1      -5.469  90.106 114.819  0.00  0.00     0.028 C 
ATOM      5  C   LIG d   1      -6.007  90.987 115.942  0.00  0.00    -0.047 C 
ATOM      6  C   LIG d   1      -4.823  91.473 116.808  0.00  0.00     0.091 C 
ENDROOT
BRANCH   1   7
ATOM      7  O   LIG d   1      -2.679  90.747 117.748  0.00  0.00    -0.368 OA
BRANCH   7   8
ATOM      8  C   LIG d   1      -1.582  89.832 117.510  0.00  0.00     0.119 C 
BRANCH   8   9
ATOM      9  C   LIG d   1      -1.114  89.302 118.879  0.00  0.00     0.028 C 
ATOM     10  C   LIG d   1      -1.092  87.766 118.939  0.00  0.00     0.006 C 
ENDBRANCH   8   9
BRANCH   8  11
ATOM     11  C   LIG d   1      -0.369  90.557 116.920  0.00  0.00     0.028 C 
ATOM     12  C   LIG d   1       0.650  90.982 117.989  0.00  0.00     0.006 C 
ENDBRANCH   8  11
ENDBRANCH   7   8
ENDBRANCH   1   7
BRANCH   6  13
ATOM     13  N   LIG d   1      -5.268  92.272 117.980  0.00  0.00    -0.311 N 
ATOM     14  C   LIG d   1      -4.546  93.255 118.514  0.00  0.00     0.210 C 
ATOM     15  C   LIG d   1      -5.181  93.938 119.729  0.00  0.00     0.109 C 
ATOM     16  O   LIG d   1      -3.454  93.648 118.077  0.00  0.00    -0.276 OA
ATOM     17  H   LIG d   1      -6.157  92.041 118.378  0.00  0.00     0.149 HD
ENDBRANCH   6  13
BRANCH   5  18
ATOM     18  N   LIG d   1      -6.760  92.092 115.319  0.00  0.00     0.381 N 
ATOM     19  H   LIG d   1      -7.159  92.672 116.030  0.00  0.00    -0.090 HD
ATOM     20  H   LIG d   1      -7.508  91.707 114.770  0.00  0.00    -0.090 HD
ATOM     21  H   LIG d   1      -6.156  92.632 114.740  0.00  0.00    -0.090 HD
ENDBRANCH   5  18
BRANCH   3  22
ATOM     22  C   LIG d   1      -4.577  87.899 114.548  0.00  0.00     0.382 C 
ATOM     23  O   LIG d   1      -4.936  87.885 113.346  0.00  0.00    -0.241 OA
ATOM     24  O   LIG d   1      -4.223  86.838 115.095  0.00  0.00    -0.241 OA
ENDBRANCH   3  22
TORSDOF 7
ENDMDL
MODEL 7
REMARK VINA RESULT:      -5.2      3.346      5.561
REMARK  7 active torsions:
REMARK  status: ('A' for Active; 'I' for Inactive)
REMARK    1  A    between atoms: C_2  and  C_3 
REMARK    2  A    between atoms: C_3  and  O_6 
REMARK    3  A    between atoms: C_3  and  C_4 
REMARK    4  A    between atoms: C_7  and  O_6 
REMARK    5  A    between atoms: C_9  and  C_10 
REMARK    6  A    between atoms: N_15  and  C_14 
REMARK    7  A    between atoms: N_20  and  C_19 
REMARK       I    between atoms: C_22  and  N_20 
ROOT
ATOM      1  C   LIG d   1      -2.878  90.897 117.114  0.00  0.00     0.161 C 
ATOM      2  C   LIG d   1      -3.935  91.791 116.875  0.00  0.00     0.016 C 
ATOM      3  C   LIG d   1      -5.097  91.445 116.148  0.00  0.00     0.038 C 
ATOM      4  C   LIG d   1      -5.351  90.128 115.738  0.00  0.00     0.028 C 
ATOM      5  C   LIG d   1      -4.084  89.308 115.518  0.00  0.00    -0.047 C 
ATOM      6  C   LIG d   1      -3.186  89.424 116.770  0.00  0.00     0.091 C 
ENDROOT
BRANCH   1   7
ATOM      7  O   LIG d   1      -2.442  91.011 118.484  0.00  0.00    -0.368 OA
BRANCH   7   8
ATOM      8  C   LIG d   1      -1.154  91.641 118.692  0.00  0.00     0.119 C 
BRANCH   8   9
ATOM      9  C   LIG d   1      -1.416  93.078 119.184  0.00  0.00     0.028 C 
ATOM     10  C   LIG d   1      -1.243  94.121 118.067  0.00  0.00     0.006 C 
ENDBRANCH   8   9
BRANCH   8  11
ATOM     11  C   LIG d   1      -0.390  91.797 117.374  0.00  0.00     0.028 C 
ATOM     12  C   LIG d   1       0.885  90.941 117.320  0.00  0.00     0.006 C 
ENDBRANCH   8  11
ENDBRANCH   7   8
ENDBRANCH   1   7
BRANCH   6  13
ATOM     13  N   LIG d   1      -1.888  88.720 116.605  0.00  0.00    -0.311 N 
ATOM     14  C   LIG d   1      -1.673  87.473 117.020  0.00  0.00     0.210 C 
ATOM     15  C   LIG d   1      -0.257  86.944 116.769  0.00  0.00     0.109 C 
ATOM     16  O   LIG d   1      -2.529  86.743 117.542  0.00  0.00    -0.276 OA
ATOM     17  H   LIG d   1      -1.147  89.228 116.163  0.00  0.00     0.149 HD
ENDBRANCH   6  13
BRANCH   5  18
ATOM     18  N   LIG d   1      -4.495  87.921 115.228  0.00  0.00     0.381 N 
ATOM     19  H   LIG d   1      -4.231  87.324 115.987  0.00  0.00    -0.090 HD
ATOM     20  H   LIG d   1      -4.021  87.607 114.400  0.00  0.00    -0.090 HD
ATOM     21  H   LIG d   1      -5.481  87.879 115.091  0.00  0.00    -0.090 HD
ENDBRANCH   5  18
BRANCH   3  22
ATOM     22  C   LIG d   1      -6.003  92.432 115.790  0.00  0.00     0.382 C 
ATOM     23  O   LIG d   1      -6.536  93.145 116.675  0.00  0.00    -0.241 OA
ATOM     24  O   LIG d   1      -6.327  92.589 114.598  0.00  0.00    -0.241 OA
ENDBRANCH   3  22
TORSDOF 7
ENDMDL
MODEL 8
REMARK VINA RESULT:      -5.1     15.090     17.497
REMARK  7 active torsions:
REMARK  status: ('A' for Active; 'I' for Inactive)
REMARK    1  A    between atoms: C_2  and  C_3 
REMARK    2  A    between atoms: C_3  and  O_6 
REMARK    3  A    between atoms: C_3  and  C_4 
REMARK    4  A    between atoms: C_7  and  O_6 
REMARK    5  A    between atoms: C_9  and  C_10 
REMARK    6  A    between atoms: N_15  and  C_14 
REMARK    7  A    between atoms: N_20  and  C_19 
REMARK       I    between atoms: C_22  and  N_20 
ROOT
ATOM      1  C   LIG d   1      -1.058  76.173 115.301  0.00  0.00     0.161 C 
ATOM      2  C   LIG d   1      -2.308  76.045 114.672  0.00  0.00     0.016 C 
ATOM      3  C   LIG d   1      -3.453  75.521 115.315  0.00  0.00     0.038 C 
ATOM      4  C   LIG d   1      -3.464  75.228 116.687  0.00  0.00     0.028 C 
ATOM      5  C   LIG d   1      -2.090  74.867 117.240  0.00  0.00    -0.047 C 
ATOM      6  C   LIG d   1      -1.079  75.963 116.830  0.00  0.00     0.091 C 
ENDROOT
BRANCH   1   7
ATOM      7  O   LIG d   1      -0.478  77.453 114.980  0.00  0.00    -0.368 OA
BRANCH   7   8
ATOM      8  C   LIG d   1      -1.189  78.616 115.471  0.00  0.00     0.119 C 
BRANCH   8   9
ATOM      9  C   LIG d   1      -1.293  79.620 114.307  0.00  0.00     0.028 C 
ATOM     10  C   LIG d   1      -2.712  79.689 113.717  0.00  0.00     0.006 C 
ENDBRANCH   8   9
BRANCH   8  11
ATOM     11  C   LIG d   1      -0.389  79.338 116.559  0.00  0.00     0.028 C 
ATOM     12  C   LIG d   1      -0.059  80.793 116.190  0.00  0.00     0.006 C 
ENDBRANCH   8  11
ENDBRANCH   7   8
ENDBRANCH   1   7
BRANCH   6  13
ATOM     13  N   LIG d   1       0.307  75.645 117.259  0.00  0.00    -0.311 N 
ATOM     14  C   LIG d   1       0.864  76.138 118.365  0.00  0.00     0.210 C 
ATOM     15  C   LIG d   1       2.310  75.698 118.612  0.00  0.00     0.109 C 
ATOM     16  O   LIG d   1       0.286  76.871 119.181  0.00  0.00    -0.276 OA
ATOM     17  H   LIG d   1       0.838  75.032 116.672  0.00  0.00     0.149 HD
ENDBRANCH   6  13
BRANCH   5  18
ATOM     18  N   LIG d   1      -2.222  74.721 118.702  0.00  0.00     0.381 N 
ATOM     19  H   LIG d   1      -1.324  74.805 119.134  0.00  0.00    -0.090 HD
ATOM     20  H   LIG d   1      -2.586  73.807 118.906  0.00  0.00    -0.090 HD
ATOM     21  H   LIG d   1      -2.837  75.419 119.060  0.00  0.00    -0.090 HD
ENDBRANCH   5  18
BRANCH   3  22
ATOM     22  C   LIG d   1      -4.592  75.247 114.574  0.00  0.00     0.382 C 
ATOM     23  O   LIG d   1      -4.727  75.739 113.427  0.00  0.00    -0.241 OA
ATOM     24  O   LIG d   1      -5.507  74.551 115.055  0.00  0.00    -0.241 OA
ENDBRANCH   3  22
TORSDOF 7
ENDMDL
MODEL 9
REMARK VINA RESULT:      -5.1      2.131      4.926
REMARK  7 active torsions:
REMARK  status: ('A' for Active; 'I' for Inactive)
REMARK    1  A    between atoms: C_2  and  C_3 
REMARK    2  A    between atoms: C_3  and  O_6 
REMARK    3  A    between atoms: C_3  and  C_4 
REMARK    4  A    between atoms: C_7  and  O_6 
REMARK    5  A    between atoms: C_9  and  C_10 
REMARK    6  A    between atoms: N_15  and  C_14 
REMARK    7  A    between atoms: N_20  and  C_19 
REMARK       I    between atoms: C_22  and  N_20 
ROOT
ATOM      1  C   LIG d   1      -4.934  93.370 118.422  0.00  0.00     0.161 C 
ATOM      2  C   LIG d   1      -5.787  93.024 117.361  0.00  0.00     0.016 C 
ATOM      3  C   LIG d   1      -5.414  92.148 116.316  0.00  0.00     0.038 C 
ATOM      4  C   LIG d   1      -4.206  91.435 116.343  0.00  0.00     0.028 C 
ATOM      5  C   LIG d   1      -3.106  92.136 117.133  0.00  0.00    -0.047 C 
ATOM      6  C   LIG d   1      -3.654  92.515 118.527  0.00  0.00     0.091 C 
ENDROOT
BRANCH   1   7
ATOM      7  O   LIG d   1      -5.663  93.336 119.665  0.00  0.00    -0.368 OA
BRANCH   7   8
ATOM      8  C   LIG d   1      -5.929  94.619 120.284  0.00  0.00     0.119 C 
BRANCH   8   9
ATOM      9  C   LIG d   1      -7.434  94.907 120.122  0.00  0.00     0.028 C 
ATOM     10  C   LIG d   1      -7.738  95.760 118.879  0.00  0.00     0.006 C 
ENDBRANCH   8   9
BRANCH   8  11
ATOM     11  C   LIG d   1      -5.217  95.753 119.541  0.00  0.00     0.028 C 
ATOM     12  C   LIG d   1      -4.158  96.457 120.404  0.00  0.00     0.006 C 
ENDBRANCH   8  11
ENDBRANCH   7   8
ENDBRANCH   1   7
BRANCH   6  13
ATOM     13  N   LIG d   1      -2.668  93.280 119.335  0.00  0.00    -0.311 N 
ATOM     14  C   LIG d   1      -2.268  92.907 120.549  0.00  0.00     0.210 C 
ATOM     15  C   LIG d   1      -1.261  93.850 121.216  0.00  0.00     0.109 C 
ATOM     16  O   LIG d   1      -2.628  91.869 121.124  0.00  0.00    -0.276 OA
ATOM     17  H   LIG d   1      -2.301  94.120 118.931  0.00  0.00     0.149 HD
ENDBRANCH   6  13
BRANCH   5  18
ATOM     18  N   LIG d   1      -1.950  91.222 117.195  0.00  0.00     0.381 N 
ATOM     19  H   LIG d   1      -2.268  90.281 117.319  0.00  0.00    -0.090 HD
ATOM     20  H   LIG d   1      -1.381  91.469 117.985  0.00  0.00    -0.090 HD
ATOM     21  H   LIG d   1      -1.415  91.291 116.357  0.00  0.00    -0.090 HD
ENDBRANCH   5  18
BRANCH   3  22
ATOM     22  C   LIG d   1      -6.236  92.009 115.208  0.00  0.00     0.382 C 
ATOM     23  O   LIG d   1      -7.240  91.258 115.264  0.00  0.00    -0.241 OA
ATOM     24  O   LIG d   1      -5.962  92.589 114.141  0.00  0.00    -0.241 OA
ENDBRANCH   3  22
TORSDOF 7
ENDMDL
