MODEL 1
REMARK VINA RESULT:      -6.2      0.000      0.000
REMARK  7 active torsions:
REMARK  status: ('A' for Active; 'I' for Inactive)
REMARK    1  A    between atoms: C_2  and  C_3 
REMARK    2  A    between atoms: C_3  and  O_6 
REMARK    3  A    between atoms: C_3  and  C_4 
REMARK    4  A    between atoms: C_7  and  O_6 
REMARK    5  A    between atoms: C_9  and  C_10 
REMARK    6  A    between atoms: N_15  and  C_14 
REMARK    7  A    between atoms: N_20  and  C_19 
REMARK       I    between atoms: C_22  and  N_20 
ROOT
ATOM      1  C   LIG d   1      -6.523  74.996 116.608  0.00  0.00     0.161 C 
ATOM      2  C   LIG d   1      -5.282  74.464 116.222  0.00  0.00     0.016 C 
ATOM      3  C   LIG d   1      -4.043  74.969 116.677  0.00  0.00     0.038 C 
ATOM      4  C   LIG d   1      -3.964  75.951 117.676  0.00  0.00     0.028 C 
ATOM      5  C   LIG d   1      -5.184  76.865 117.723  0.00  0.00    -0.047 C 
ATOM      6  C   LIG d   1      -6.461  75.996 117.782  0.00  0.00     0.091 C 
ENDROOT
BRANCH   1   7
ATOM      7  O   LIG d   1      -7.441  73.927 116.909  0.00  0.00    -0.368 OA
BRANCH   7   8
ATOM      8  C   LIG d   1      -6.854  72.711 117.433  0.00  0.00     0.119 C 
BRANCH   8   9
ATOM      9  C   LIG d   1      -7.320  71.547 116.537  0.00  0.00     0.028 C 
ATOM     10  C   LIG d   1      -8.521  70.793 117.133  0.00  0.00     0.006 C 
ENDBRANCH   8   9
BRANCH   8  11
ATOM     11  C   LIG d   1      -7.393  72.388 118.830  0.00  0.00     0.028 C 
ATOM     12  C   LIG d   1      -7.500  73.630 119.729  0.00  0.00     0.006 C 
ENDBRANCH   8  11
ENDBRANCH   7   8
ENDBRANCH   1   7
BRANCH   6  13
ATOM     13  N   LIG d   1      -7.704  76.810 117.746  0.00  0.00    -0.311 N 
ATOM     14  C   LIG d   1      -8.315  77.262 118.839  0.00  0.00     0.210 C 
ATOM     15  C   LIG d   1      -9.594  78.065 118.579  0.00  0.00     0.109 C 
ATOM     16  O   LIG d   1      -7.903  77.102 119.998  0.00  0.00    -0.276 OA
ATOM     17  H   LIG d   1      -8.090  77.013 116.845  0.00  0.00     0.149 HD
ENDBRANCH   6  13
BRANCH   5  18
ATOM     18  N   LIG d   1      -5.033  77.750 118.894  0.00  0.00     0.381 N 
ATOM     19  H   LIG d   1      -4.202  78.300 118.798  0.00  0.00    -0.090 HD
ATOM     20  H   LIG d   1      -4.943  77.185 119.719  0.00  0.00    -0.090 HD
ATOM     21  H   LIG d   1      -5.827  78.347 118.975  0.00  0.00    -0.090 HD
ENDBRANCH   5  18
BRANCH   3  22
ATOM     22  C   LIG d   1      -2.864  74.518 116.103  0.00  0.00     0.382 C 
ATOM     23  O   LIG d   1      -2.039  73.869 116.792  0.00  0.00    -0.241 OA
ATOM     24  O   LIG d   1      -2.594  74.790 114.918  0.00  0.00    -0.241 OA
ENDBRANCH   3  22
TORSDOF 7
ENDMDL
MODEL 2
REMARK VINA RESULT:      -5.8     15.142     17.614
REMARK  7 active torsions:
REMARK  status: ('A' for Active; 'I' for Inactive)
REMARK    1  A    between atoms: C_2  and  C_3 
REMARK    2  A    between atoms: C_3  and  O_6 
REMARK    3  A    between atoms: C_3  and  C_4 
REMARK    4  A    between atoms: C_7  and  O_6 
REMARK    5  A    between atoms: C_9  and  C_10 
REMARK    6  A    between atoms: N_15  and  C_14 
REMARK    7  A    between atoms: N_20  and  C_19 
REMARK       I    between atoms: C_22  and  N_20 
ROOT
ATOM      1  C   LIG d   1      -5.014  92.530 116.625  0.00  0.00     0.161 C 
ATOM      2  C   LIG d   1      -6.179  91.914 116.137  0.00  0.00     0.016 C 
ATOM      3  C   LIG d   1      -6.246  90.548 115.780  0.00  0.00     0.038 C 
ATOM      4  C   LIG d   1      -5.186  89.664 116.031  0.00  0.00     0.028 C 
ATOM      5  C   LIG d   1      -3.822  90.344 116.053  0.00  0.00    -0.047 C 
ATOM      6  C   LIG d   1      -3.881  91.556 117.010  0.00  0.00     0.091 C 
ENDROOT
BRANCH   1   7
ATOM      7  O   LIG d   1      -5.343  93.383 117.740  0.00  0.00    -0.368 OA
BRANCH   7   8
ATOM      8  C   LIG d   1      -6.380  92.900 118.628  0.00  0.00     0.119 C 
BRANCH   8   9
ATOM      9  C   LIG d   1      -7.238  94.112 119.040  0.00  0.00     0.028 C 
ATOM     10  C   LIG d   1      -8.073  94.664 117.872  0.00  0.00     0.006 C 
ENDBRANCH   8   9
BRANCH   8  11
ATOM     11  C   LIG d   1      -5.790  92.359 119.933  0.00  0.00     0.028 C 
ATOM     12  C   LIG d   1      -4.498  93.081 120.347  0.00  0.00     0.006 C 
ENDBRANCH   8  11
ENDBRANCH   7   8
ENDBRANCH   1   7
BRANCH   6  13
ATOM     13  N   LIG d   1      -2.611  92.328 117.026  0.00  0.00    -0.311 N 
ATOM     14  C   LIG d   1      -1.623  92.096 117.889  0.00  0.00     0.210 C 
ATOM     15  C   LIG d   1      -0.410  93.020 117.746  0.00  0.00     0.109 C 
ATOM     16  O   LIG d   1      -1.623  91.193 118.738  0.00  0.00    -0.276 OA
ATOM     17  H   LIG d   1      -2.514  93.060 116.350  0.00  0.00     0.149 HD
ENDBRANCH   6  13
BRANCH   5  18
ATOM     18  N   LIG d   1      -2.827  89.334 116.460  0.00  0.00     0.381 N 
ATOM     19  H   LIG d   1      -1.954  89.516 116.007  0.00  0.00    -0.090 HD
ATOM     20  H   LIG d   1      -3.148  88.426 116.173  0.00  0.00    -0.090 HD
ATOM     21  H   LIG d   1      -2.706  89.353 117.449  0.00  0.00    -0.090 HD
ENDBRANCH   5  18
BRANCH   3  22
ATOM     22  C   LIG d   1      -7.369  90.062 115.128  0.00  0.00     0.382 C 
ATOM     23  O   LIG d   1      -7.814  90.658 114.117  0.00  0.00    -0.241 OA
ATOM     24  O   LIG d   1      -7.969  89.061 115.563  0.00  0.00    -0.241 OA
ENDBRANCH   3  22
TORSDOF 7
ENDMDL
MODEL 3
REMARK VINA RESULT:      -5.7     15.991     18.786
REMARK  7 active torsions:
REMARK  status: ('A' for Active; 'I' for Inactive)
REMARK    1  A    between atoms: C_2  and  C_3 
REMARK    2  A    between atoms: C_3  and  O_6 
REMARK    3  A    between atoms: C_3  and  C_4 
REMARK    4  A    between atoms: C_7  and  O_6 
REMARK    5  A    between atoms: C_9  and  C_10 
REMARK    6  A    between atoms: N_15  and  C_14 
REMARK    7  A    between atoms: N_20  and  C_19 
REMARK       I    between atoms: C_22  and  N_20 
ROOT
ATOM      1  C   LIG d   1      -6.149  93.267 117.579  0.00  0.00     0.161 C 
ATOM      2  C   LIG d   1      -6.671  92.105 116.986  0.00  0.00     0.016 C 
ATOM      3  C   LIG d   1      -5.866  91.057 116.486  0.00  0.00     0.038 C 
ATOM      4  C   LIG d   1      -4.477  91.031 116.682  0.00  0.00     0.028 C 
ATOM      5  C   LIG d   1      -3.859  92.418 116.826  0.00  0.00    -0.047 C 
ATOM      6  C   LIG d   1      -4.641  93.206 117.902  0.00  0.00     0.091 C 
ENDROOT
BRANCH   1   7
ATOM      7  O   LIG d   1      -6.902  93.592 118.764  0.00  0.00    -0.368 OA
BRANCH   7   8
ATOM      8  C   LIG d   1      -7.989  94.534 118.589  0.00  0.00     0.119 C 
BRANCH   8   9
ATOM      9  C   LIG d   1      -7.496  95.908 119.083  0.00  0.00     0.028 C 
ATOM     10  C   LIG d   1      -7.103  96.841 117.926  0.00  0.00     0.006 C 
ENDBRANCH   8   9
BRANCH   8  11
ATOM     11  C   LIG d   1      -9.180  94.184 119.487  0.00  0.00     0.028 C 
ATOM     12  C   LIG d   1      -8.796  93.256 120.651  0.00  0.00     0.006 C 
ENDBRANCH   8  11
ENDBRANCH   7   8
ENDBRANCH   1   7
BRANCH   6  13
ATOM     13  N   LIG d   1      -4.155  94.603 118.046  0.00  0.00    -0.311 N 
ATOM     14  C   LIG d   1      -3.884  95.167 119.222  0.00  0.00     0.210 C 
ATOM     15  C   LIG d   1      -3.414  96.623 119.147  0.00  0.00     0.109 C 
ATOM     16  O   LIG d   1      -3.956  94.589 120.317  0.00  0.00    -0.276 OA
ATOM     17  H   LIG d   1      -4.038  95.134 117.206  0.00  0.00     0.149 HD
ENDBRANCH   6  13
BRANCH   5  18
ATOM     18  N   LIG d   1      -2.434  92.238 117.163  0.00  0.00     0.381 N 
ATOM     19  H   LIG d   1      -2.103  91.374 116.782  0.00  0.00    -0.090 HD
ATOM     20  H   LIG d   1      -2.338  92.201 118.162  0.00  0.00    -0.090 HD
ATOM     21  H   LIG d   1      -1.900  92.996 116.799  0.00  0.00    -0.090 HD
ENDBRANCH   5  18
BRANCH   3  22
ATOM     22  C   LIG d   1      -6.445  90.038 115.745  0.00  0.00     0.382 C 
ATOM     23  O   LIG d   1      -7.642  90.132 115.378  0.00  0.00    -0.241 OA
ATOM     24  O   LIG d   1      -5.801  89.007 115.476  0.00  0.00    -0.241 OA
ENDBRANCH   3  22
TORSDOF 7
ENDMDL
MODEL 4
REMARK VINA RESULT:      -5.6     15.264     17.851
REMARK  7 active torsions:
REMARK  status: ('A' for Active; 'I' for Inactive)
REMARK    1  A    between atoms: C_2  and  C_3 
REMARK    2  A    between atoms: C_3  and  O_6 
REMARK    3  A    between atoms: C_3  and  C_4 
REMARK    4  A    between atoms: C_7  and  O_6 
REMARK    5  A    between atoms: C_9  and  C_10 
REMARK    6  A    between atoms: N_15  and  C_14 
REMARK    7  A    between atoms: N_20  and  C_19 
REMARK       I    between atoms: C_22  and  N_20 
ROOT
ATOM      1  C   LIG d   1      -3.371  92.051 117.156  0.00  0.00     0.161 C 
ATOM      2  C   LIG d   1      -4.569  92.742 116.910  0.00  0.00     0.016 C 
ATOM      3  C   LIG d   1      -5.648  92.193 116.180  0.00  0.00     0.038 C 
ATOM      4  C   LIG d   1      -5.661  90.850 115.773  0.00  0.00     0.028 C 
ATOM      5  C   LIG d   1      -4.267  90.269 115.559  0.00  0.00    -0.047 C 
ATOM      6  C   LIG d   1      -3.410  90.546 116.815  0.00  0.00     0.091 C 
ENDROOT
BRANCH   1   7
ATOM      7  O   LIG d   1      -2.968  92.244 118.527  0.00  0.00    -0.368 OA
BRANCH   7   8
ATOM      8  C   LIG d   1      -1.813  93.093 118.738  0.00  0.00     0.119 C 
BRANCH   8   9
ATOM      9  C   LIG d   1      -1.173  93.355 117.361  0.00  0.00     0.028 C 
ATOM     10  C   LIG d   1       0.282  92.862 117.286  0.00  0.00     0.006 C 
ENDBRANCH   8   9
BRANCH   8  11
ATOM     11  C   LIG d   1      -0.735  92.374 119.556  0.00  0.00     0.028 C 
ATOM     12  C   LIG d   1      -0.792  92.721 121.052  0.00  0.00     0.006 C 
ENDBRANCH   8  11
ENDBRANCH   7   8
ENDBRANCH   1   7
BRANCH   6  13
ATOM     13  N   LIG d   1      -2.006  90.084 116.657  0.00  0.00    -0.311 N 
ATOM     14  C   LIG d   1      -1.392  89.292 117.534  0.00  0.00     0.210 C 
ATOM     15  C   LIG d   1       0.061  88.951 117.190  0.00  0.00     0.109 C 
ATOM     16  O   LIG d   1      -1.923  88.814 118.548  0.00  0.00    -0.276 OA
ATOM     17  H   LIG d   1      -1.511  90.400 115.846  0.00  0.00     0.149 HD
ENDBRANCH   6  13
BRANCH   5  18
ATOM     18  N   LIG d   1      -4.424  88.830 115.272  0.00  0.00     0.381 N 
ATOM     19  H   LIG d   1      -5.352  88.649 114.945  0.00  0.00    -0.090 HD
ATOM     20  H   LIG d   1      -4.282  88.312 116.122  0.00  0.00    -0.090 HD
ATOM     21  H   LIG d   1      -3.760  88.545 114.586  0.00  0.00    -0.090 HD
ENDBRANCH   5  18
BRANCH   3  22
ATOM     22  C   LIG d   1      -6.713  93.002 115.816  0.00  0.00     0.382 C 
ATOM     23  O   LIG d   1      -7.087  93.045 114.619  0.00  0.00    -0.241 OA
ATOM     24  O   LIG d   1      -7.277  93.723 116.661  0.00  0.00    -0.241 OA
ENDBRANCH   3  22
TORSDOF 7
ENDMDL
MODEL 5
REMARK VINA RESULT:      -5.5      3.713      6.436
REMARK  7 active torsions:
REMARK  status: ('A' for Active; 'I' for Inactive)
REMARK    1  A    between atoms: C_2  and  C_3 
REMARK    2  A    between atoms: C_3  and  O_6 
REMARK    3  A    between atoms: C_3  and  C_4 
REMARK    4  A    between atoms: C_7  and  O_6 
REMARK    5  A    between atoms: C_9  and  C_10 
REMARK    6  A    between atoms: N_15  and  C_14 
REMARK    7  A    between atoms: N_20  and  C_19 
REMARK       I    between atoms: C_22  and  N_20 
ROOT
ATOM      1  C   LIG d   1      -2.466  74.571 116.304  0.00  0.00     0.161 C 
ATOM      2  C   LIG d   1      -3.005  75.439 117.268  0.00  0.00     0.016 C 
ATOM      3  C   LIG d   1      -2.293  76.530 117.818  0.00  0.00     0.038 C 
ATOM      4  C   LIG d   1      -1.038  76.919 117.326  0.00  0.00     0.028 C 
ATOM      5  C   LIG d   1      -0.247  75.771 116.707  0.00  0.00    -0.047 C 
ATOM      6  C   LIG d   1      -1.140  75.046 115.675  0.00  0.00     0.091 C 
ENDROOT
BRANCH   1   7
ATOM      7  O   LIG d   1      -3.444  74.314 115.277  0.00  0.00    -0.368 OA
BRANCH   7   8
ATOM      8  C   LIG d   1      -4.682  75.061 115.374  0.00  0.00     0.119 C 
BRANCH   8   9
ATOM      9  C   LIG d   1      -5.840  74.045 115.338  0.00  0.00     0.028 C 
ATOM     10  C   LIG d   1      -6.125  73.431 116.719  0.00  0.00     0.006 C 
ENDBRANCH   8   9
BRANCH   8  11
ATOM     11  C   LIG d   1      -4.890  75.957 114.149  0.00  0.00     0.028 C 
ATOM     12  C   LIG d   1      -3.624  76.735 113.758  0.00  0.00     0.006 C 
ENDBRANCH   8  11
ENDBRANCH   7   8
ENDBRANCH   1   7
BRANCH   6  13
ATOM     13  N   LIG d   1      -0.472  73.857 115.083  0.00  0.00    -0.311 N 
ATOM     14  C   LIG d   1       0.074  73.852 113.868  0.00  0.00     0.210 C 
ATOM     15  C   LIG d   1       0.694  72.517 113.443  0.00  0.00     0.109 C 
ATOM     16  O   LIG d   1       0.132  74.836 113.115  0.00  0.00    -0.276 OA
ATOM     17  H   LIG d   1      -0.446  73.025 115.639  0.00  0.00     0.149 HD
ENDBRANCH   6  13
BRANCH   5  18
ATOM     18  N   LIG d   1       0.977  76.342 116.114  0.00  0.00     0.381 N 
ATOM     19  H   LIG d   1       0.925  77.341 116.127  0.00  0.00    -0.090 HD
ATOM     20  H   LIG d   1       1.044  76.043 115.157  0.00  0.00    -0.090 HD
ATOM     21  H   LIG d   1       1.777  76.036 116.622  0.00  0.00    -0.090 HD
ENDBRANCH   5  18
BRANCH   3  22
ATOM     22  C   LIG d   1      -2.819  77.220 118.899  0.00  0.00     0.382 C 
ATOM     23  O   LIG d   1      -3.985  77.680 118.841  0.00  0.00    -0.241 OA
ATOM     24  O   LIG d   1      -2.128  77.426 119.914  0.00  0.00    -0.241 OA
ENDBRANCH   3  22
TORSDOF 7
ENDMDL
MODEL 6
REMARK VINA RESULT:      -5.5     15.443     17.903
REMARK  7 active torsions:
REMARK  status: ('A' for Active; 'I' for Inactive)
REMARK    1  A    between atoms: C_2  and  C_3 
REMARK    2  A    between atoms: C_3  and  O_6 
REMARK    3  A    between atoms: C_3  and  C_4 
REMARK    4  A    between atoms: C_7  and  O_6 
REMARK    5  A    between atoms: C_9  and  C_10 
REMARK    6  A    between atoms: N_15  and  C_14 
REMARK    7  A    between atoms: N_20  and  C_19 
REMARK       I    between atoms: C_22  and  N_20 
ROOT
ATOM      1  C   LIG d   1      -4.372  91.682 117.268  0.00  0.00     0.161 C 
ATOM      2  C   LIG d   1      -4.954  91.015 116.177  0.00  0.00     0.016 C 
ATOM      3  C   LIG d   1      -6.046  91.531 115.443  0.00  0.00     0.038 C 
ATOM      4  C   LIG d   1      -6.537  92.828 115.656  0.00  0.00     0.028 C 
ATOM      5  C   LIG d   1      -6.311  93.335 117.076  0.00  0.00    -0.047 C 
ATOM      6  C   LIG d   1      -4.822  93.147 117.445  0.00  0.00     0.091 C 
ENDROOT
BRANCH   1   7
ATOM      7  O   LIG d   1      -2.935  91.607 117.177  0.00  0.00    -0.368 OA
BRANCH   7   8
ATOM      8  C   LIG d   1      -2.266  90.886 118.241  0.00  0.00     0.119 C 
BRANCH   8   9
ATOM      9  C   LIG d   1      -1.181  91.816 118.818  0.00  0.00     0.028 C 
ATOM     10  C   LIG d   1      -0.700  92.861 117.797  0.00  0.00     0.006 C 
ENDBRANCH   8   9
BRANCH   8  11
ATOM     11  C   LIG d   1      -1.511  89.669 117.701  0.00  0.00     0.028 C 
ATOM     12  C   LIG d   1      -2.428  88.461 117.452  0.00  0.00     0.006 C 
ENDBRANCH   8  11
ENDBRANCH   7   8
ENDBRANCH   1   7
BRANCH   6  13
ATOM     13  N   LIG d   1      -4.531  93.541 118.848  0.00  0.00    -0.311 N 
ATOM     14  C   LIG d   1      -3.722  94.547 119.175  0.00  0.00     0.210 C 
ATOM     15  C   LIG d   1      -3.544  94.771 120.680  0.00  0.00     0.109 C 
ATOM     16  O   LIG d   1      -3.159  95.295 118.362  0.00  0.00    -0.276 OA
ATOM     17  H   LIG d   1      -4.971  93.006 119.572  0.00  0.00     0.149 HD
ENDBRANCH   6  13
BRANCH   5  18
ATOM     18  N   LIG d   1      -6.745  94.744 117.120  0.00  0.00     0.381 N 
ATOM     19  H   LIG d   1      -7.724  94.791 117.319  0.00  0.00    -0.090 HD
ATOM     20  H   LIG d   1      -6.585  95.162 116.221  0.00  0.00    -0.090 HD
ATOM     21  H   LIG d   1      -6.233  95.237 117.819  0.00  0.00    -0.090 HD
ENDBRANCH   5  18
BRANCH   3  22
ATOM     22  C   LIG d   1      -6.686  90.730 114.508  0.00  0.00     0.382 C 
ATOM     23  O   LIG d   1      -7.479  91.242 113.682  0.00  0.00    -0.241 OA
ATOM     24  O   LIG d   1      -6.513  89.496 114.510  0.00  0.00    -0.241 OA
ENDBRANCH   3  22
TORSDOF 7
ENDMDL
MODEL 7
REMARK VINA RESULT:      -5.4      1.735      2.677
REMARK  7 active torsions:
REMARK  status: ('A' for Active; 'I' for Inactive)
REMARK    1  A    between atoms: C_2  and  C_3 
REMARK    2  A    between atoms: C_3  and  O_6 
REMARK    3  A    between atoms: C_3  and  C_4 
REMARK    4  A    between atoms: C_7  and  O_6 
REMARK    5  A    between atoms: C_9  and  C_10 
REMARK    6  A    between atoms: N_15  and  C_14 
REMARK    7  A    between atoms: N_20  and  C_19 
REMARK       I    between atoms: C_22  and  N_20 
ROOT
ATOM      1  C   LIG d   1      -4.836  75.683 117.250  0.00  0.00     0.161 C 
ATOM      2  C   LIG d   1      -3.868  74.937 116.557  0.00  0.00     0.016 C 
ATOM      3  C   LIG d   1      -2.480  75.036 116.811  0.00  0.00     0.038 C 
ATOM      4  C   LIG d   1      -1.975  75.782 117.886  0.00  0.00     0.028 C 
ATOM      5  C   LIG d   1      -2.874  76.945 118.292  0.00  0.00    -0.047 C 
ATOM      6  C   LIG d   1      -4.312  76.419 118.501  0.00  0.00     0.091 C 
ENDROOT
BRANCH   1   7
ATOM      7  O   LIG d   1      -5.949  74.836 117.596  0.00  0.00    -0.368 OA
BRANCH   7   8
ATOM      8  C   LIG d   1      -6.854  74.500 116.516  0.00  0.00     0.119 C 
BRANCH   8   9
ATOM      9  C   LIG d   1      -7.901  75.626 116.421  0.00  0.00     0.028 C 
ATOM     10  C   LIG d   1      -8.502  75.986 117.791  0.00  0.00     0.006 C 
ENDBRANCH   8   9
BRANCH   8  11
ATOM     11  C   LIG d   1      -7.652  73.231 116.832  0.00  0.00     0.028 C 
ATOM     12  C   LIG d   1      -6.879  71.944 116.500  0.00  0.00     0.006 C 
ENDBRANCH   8  11
ENDBRANCH   7   8
ENDBRANCH   1   7
BRANCH   6  13
ATOM     13  N   LIG d   1      -5.273  77.507 118.818  0.00  0.00    -0.311 N 
ATOM     14  C   LIG d   1      -5.648  77.815 120.058  0.00  0.00     0.210 C 
ATOM     15  C   LIG d   1      -6.664  78.957 120.162  0.00  0.00     0.109 C 
ATOM     16  O   LIG d   1      -5.212  77.273 121.085  0.00  0.00    -0.276 OA
ATOM     17  H   LIG d   1      -5.653  78.019 118.046  0.00  0.00     0.149 HD
ENDBRANCH   6  13
BRANCH   5  18
ATOM     18  N   LIG d   1      -2.297  77.551 119.507  0.00  0.00     0.381 N 
ATOM     19  H   LIG d   1      -3.030  77.799 120.142  0.00  0.00    -0.090 HD
ATOM     20  H   LIG d   1      -1.804  78.388 119.251  0.00  0.00    -0.090 HD
ATOM     21  H   LIG d   1      -1.673  76.909 119.945  0.00  0.00    -0.090 HD
ENDBRANCH   5  18
BRANCH   3  22
ATOM     22  C   LIG d   1      -1.580  74.415 115.959  0.00  0.00     0.382 C 
ATOM     23  O   LIG d   1      -0.810  73.527 116.399  0.00  0.00    -0.241 OA
ATOM     24  O   LIG d   1      -1.496  74.763 114.766  0.00  0.00    -0.241 OA
ENDBRANCH   3  22
TORSDOF 7
ENDMDL
MODEL 8
REMARK VINA RESULT:      -5.4      2.676      5.551
REMARK  7 active torsions:
REMARK  status: ('A' for Active; 'I' for Inactive)
REMARK    1  A    between atoms: C_2  and  C_3 
REMARK    2  A    between atoms: C_3  and  O_6 
REMARK    3  A    between atoms: C_3  and  C_4 
REMARK    4  A    between atoms: C_7  and  O_6 
REMARK    5  A    between atoms: C_9  and  C_10 
REMARK    6  A    between atoms: N_15  and  C_14 
REMARK    7  A    between atoms: N_20  and  C_19 
REMARK       I    between atoms: C_22  and  N_20 
ROOT
ATOM      1  C   LIG d   1      -7.611  75.861 120.361  0.00  0.00     0.161 C 
ATOM      2  C   LIG d   1      -8.996  75.651 120.252  0.00  0.00     0.016 C 
ATOM      3  C   LIG d   1      -9.926  76.692 120.030  0.00  0.00     0.038 C 
ATOM      4  C   LIG d   1      -9.517  78.004 119.751  0.00  0.00     0.028 C 
ATOM      5  C   LIG d   1      -8.160  78.357 120.350  0.00  0.00    -0.047 C 
ATOM      6  C   LIG d   1      -7.137  77.270 119.949  0.00  0.00     0.091 C 
ENDROOT
BRANCH   1   7
ATOM      7  O   LIG d   1      -6.903  74.854 119.612  0.00  0.00    -0.368 OA
BRANCH   7   8
ATOM      8  C   LIG d   1      -7.688  74.104 118.653  0.00  0.00     0.119 C 
BRANCH   8   9
ATOM      9  C   LIG d   1      -7.305  72.619 118.802  0.00  0.00     0.028 C 
ATOM     10  C   LIG d   1      -7.519  71.824 117.502  0.00  0.00     0.006 C 
ENDBRANCH   8   9
BRANCH   8  11
ATOM     11  C   LIG d   1      -7.316  74.476 117.215  0.00  0.00     0.028 C 
ATOM     12  C   LIG d   1      -8.239  75.551 116.619  0.00  0.00     0.006 C 
ENDBRANCH   8  11
ENDBRANCH   7   8
ENDBRANCH   1   7
BRANCH   6  13
ATOM     13  N   LIG d   1      -5.802  77.493 120.564  0.00  0.00    -0.311 N 
ATOM     14  C   LIG d   1      -4.672  77.552 119.861  0.00  0.00     0.210 C 
ATOM     15  C   LIG d   1      -3.404  77.770 120.693  0.00  0.00     0.109 C 
ATOM     16  O   LIG d   1      -4.603  77.478 118.625  0.00  0.00    -0.276 OA
ATOM     17  H   LIG d   1      -5.770  77.596 121.559  0.00  0.00     0.149 HD
ENDBRANCH   6  13
BRANCH   5  18
ATOM     18  N   LIG d   1      -7.795  79.702 119.867  0.00  0.00     0.381 N 
ATOM     19  H   LIG d   1      -8.566  80.327 119.992  0.00  0.00    -0.090 HD
ATOM     20  H   LIG d   1      -7.587  79.649 118.886  0.00  0.00    -0.090 HD
ATOM     21  H   LIG d   1      -7.001  80.039 120.365  0.00  0.00    -0.090 HD
ENDBRANCH   5  18
BRANCH   3  22
ATOM     22  C   LIG d   1     -11.285  76.432 120.127  0.00  0.00     0.382 C 
ATOM     23  O   LIG d   1     -11.768  76.014 121.206  0.00  0.00    -0.241 OA
ATOM     24  O   LIG d   1     -12.026  76.568 119.135  0.00  0.00    -0.241 OA
ENDBRANCH   3  22
TORSDOF 7
ENDMDL
MODEL 9
REMARK VINA RESULT:      -5.3     15.745     18.041
REMARK  7 active torsions:
REMARK  status: ('A' for Active; 'I' for Inactive)
REMARK    1  A    between atoms: C_2  and  C_3 
REMARK    2  A    between atoms: C_3  and  O_6 
REMARK    3  A    between atoms: C_3  and  C_4 
REMARK    4  A    between atoms: C_7  and  O_6 
REMARK    5  A    between atoms: C_9  and  C_10 
REMARK    6  A    between atoms: N_15  and  C_14 
REMARK    7  A    between atoms: N_20  and  C_19 
REMARK       I    between atoms: C_22  and  N_20 
ROOT
ATOM      1  C   LIG d   1      -5.052  91.697 118.028  0.00  0.00     0.161 C 
ATOM      2  C   LIG d   1      -5.403  90.994 116.863  0.00  0.00     0.016 C 
ATOM      3  C   LIG d   1      -6.176  91.555 115.820  0.00  0.00     0.038 C 
ATOM      4  C   LIG d   1      -6.523  92.913 115.802  0.00  0.00     0.028 C 
ATOM      5  C   LIG d   1      -6.622  93.531 117.193  0.00  0.00    -0.047 C 
ATOM      6  C   LIG d   1      -5.328  93.214 117.976  0.00  0.00     0.091 C 
ENDROOT
BRANCH   1   7
ATOM      7  O   LIG d   1      -3.668  91.450 118.348  0.00  0.00    -0.368 OA
BRANCH   7   8
ATOM      8  C   LIG d   1      -2.706  91.786 117.319  0.00  0.00     0.119 C 
BRANCH   8   9
ATOM      9  C   LIG d   1      -1.757  90.582 117.160  0.00  0.00     0.028 C 
ATOM     10  C   LIG d   1      -2.106  89.430 118.118  0.00  0.00     0.006 C 
ENDBRANCH   8   9
BRANCH   8  11
ATOM     11  C   LIG d   1      -1.812  92.952 117.752  0.00  0.00     0.028 C 
ATOM     12  C   LIG d   1      -1.660  93.052 119.278  0.00  0.00     0.006 C 
ENDBRANCH   8  11
ENDBRANCH   7   8
ENDBRANCH   1   7
BRANCH   6  13
ATOM     13  N   LIG d   1      -5.376  93.710 119.376  0.00  0.00    -0.311 N 
ATOM     14  C   LIG d   1      -4.865  94.880 119.757  0.00  0.00     0.210 C 
ATOM     15  C   LIG d   1      -5.004  95.190 121.251  0.00  0.00     0.109 C 
ATOM     16  O   LIG d   1      -4.338  95.704 118.995  0.00  0.00    -0.276 OA
ATOM     17  H   LIG d   1      -5.813  93.118 120.055  0.00  0.00     0.149 HD
ENDBRANCH   6  13
BRANCH   5  18
ATOM     18  N   LIG d   1      -6.854  94.978 117.022  0.00  0.00     0.381 N 
ATOM     19  H   LIG d   1      -6.809  95.435 117.911  0.00  0.00    -0.090 HD
ATOM     20  H   LIG d   1      -7.774  95.117 116.643  0.00  0.00    -0.090 HD
ATOM     21  H   LIG d   1      -6.172  95.363 116.407  0.00  0.00    -0.090 HD
ENDBRANCH   5  18
BRANCH   3  22
ATOM     22  C   LIG d   1      -6.642  90.742 114.798  0.00  0.00     0.382 C 
ATOM     23  O   LIG d   1      -6.266  89.547 114.725  0.00  0.00    -0.241 OA
ATOM     24  O   LIG d   1      -7.400  91.201 113.922  0.00  0.00    -0.241 OA
ENDBRANCH   3  22
TORSDOF 7
ENDMDL
