MODEL 1
REMARK VINA RESULT:      -5.9      0.000      0.000
REMARK  7 active torsions:
REMARK  status: ('A' for Active; 'I' for Inactive)
REMARK    1  A    between atoms: C_2  and  C_3 
REMARK    2  A    between atoms: C_3  and  O_6 
REMARK    3  A    between atoms: C_3  and  C_4 
REMARK    4  A    between atoms: C_7  and  O_6 
REMARK    5  A    between atoms: C_9  and  C_10 
REMARK    6  A    between atoms: N_15  and  C_14 
REMARK    7  A    between atoms: N_20  and  C_19 
REMARK       I    between atoms: C_22  and  N_20 
ROOT
ATOM      1  C   LIG d   1      -6.601  76.798 117.049  0.00  0.00     0.161 C 
ATOM      2  C   LIG d   1      -7.950  77.013 117.376  0.00  0.00     0.016 C 
ATOM      3  C   LIG d   1      -8.457  78.261 117.807  0.00  0.00     0.038 C 
ATOM      4  C   LIG d   1      -7.672  79.424 117.795  0.00  0.00     0.028 C 
ATOM      5  C   LIG d   1      -6.181  79.150 117.955  0.00  0.00    -0.047 C 
ATOM      6  C   LIG d   1      -5.753  78.081 116.923  0.00  0.00     0.091 C 
ENDROOT
BRANCH   1   7
ATOM      7  O   LIG d   1      -6.510  76.017 115.841  0.00  0.00    -0.368 OA
BRANCH   7   8
ATOM      8  C   LIG d   1      -5.598  74.891 115.878  0.00  0.00     0.119 C 
BRANCH   8   9
ATOM      9  C   LIG d   1      -4.610  75.058 114.707  0.00  0.00     0.028 C 
ATOM     10  C   LIG d   1      -5.272  75.674 113.463  0.00  0.00     0.006 C 
ENDBRANCH   8   9
BRANCH   8  11
ATOM     11  C   LIG d   1      -6.329  73.573 115.606  0.00  0.00     0.028 C 
ATOM     12  C   LIG d   1      -7.211  73.127 116.784  0.00  0.00     0.006 C 
ENDBRANCH   8  11
ENDBRANCH   7   8
ENDBRANCH   1   7
BRANCH   6  13
ATOM     13  N   LIG d   1      -4.326  77.693 117.067  0.00  0.00    -0.311 N 
ATOM     14  C   LIG d   1      -3.380  78.041 116.197  0.00  0.00     0.210 C 
ATOM     15  C   LIG d   1      -1.977  77.520 116.523  0.00  0.00     0.109 C 
ATOM     16  O   LIG d   1      -3.564  78.760 115.202  0.00  0.00    -0.276 OA
ATOM     17  H   LIG d   1      -4.083  77.136 117.863  0.00  0.00     0.149 HD
ENDBRANCH   6  13
BRANCH   5  18
ATOM     18  N   LIG d   1      -5.472  80.432 117.786  0.00  0.00     0.381 N 
ATOM     19  H   LIG d   1      -6.099  81.121 117.421  0.00  0.00    -0.090 HD
ATOM     20  H   LIG d   1      -4.723  80.306 117.128  0.00  0.00    -0.090 HD
ATOM     21  H   LIG d   1      -5.106  80.737 118.662  0.00  0.00    -0.090 HD
ENDBRANCH   5  18
BRANCH   3  22
ATOM     22  C   LIG d   1      -9.752  78.345 118.294  0.00  0.00     0.382 C 
ATOM     23  O   LIG d   1     -10.038  79.196 119.171  0.00  0.00    -0.241 OA
ATOM     24  O   LIG d   1     -10.628  77.552 117.900  0.00  0.00    -0.241 OA
ENDBRANCH   3  22
TORSDOF 7
ENDMDL
MODEL 2
REMARK VINA RESULT:      -5.8      2.230      5.083
REMARK  7 active torsions:
REMARK  status: ('A' for Active; 'I' for Inactive)
REMARK    1  A    between atoms: C_2  and  C_3 
REMARK    2  A    between atoms: C_3  and  O_6 
REMARK    3  A    between atoms: C_3  and  C_4 
REMARK    4  A    between atoms: C_7  and  O_6 
REMARK    5  A    between atoms: C_9  and  C_10 
REMARK    6  A    between atoms: N_15  and  C_14 
REMARK    7  A    between atoms: N_20  and  C_19 
REMARK       I    between atoms: C_22  and  N_20 
ROOT
ATOM      1  C   LIG d   1      -5.750  77.905 117.172  0.00  0.00     0.161 C 
ATOM      2  C   LIG d   1      -5.687  76.610 116.631  0.00  0.00     0.016 C 
ATOM      3  C   LIG d   1      -6.805  75.750 116.539  0.00  0.00     0.038 C 
ATOM      4  C   LIG d   1      -8.103  76.185 116.845  0.00  0.00     0.028 C 
ATOM      5  C   LIG d   1      -8.136  77.315 117.869  0.00  0.00    -0.047 C 
ATOM      6  C   LIG d   1      -7.179  78.438 117.409  0.00  0.00     0.091 C 
ENDROOT
BRANCH   1   7
ATOM      7  O   LIG d   1      -5.006  78.818 116.342  0.00  0.00    -0.368 OA
BRANCH   7   8
ATOM      8  C   LIG d   1      -3.631  79.058 116.730  0.00  0.00     0.119 C 
BRANCH   8   9
ATOM      9  C   LIG d   1      -3.587  80.411 117.465  0.00  0.00     0.028 C 
ATOM     10  C   LIG d   1      -3.442  80.248 118.988  0.00  0.00     0.006 C 
ENDBRANCH   8   9
BRANCH   8  11
ATOM     11  C   LIG d   1      -2.728  79.232 115.506  0.00  0.00     0.028 C 
ATOM     12  C   LIG d   1      -2.473  77.912 114.761  0.00  0.00     0.006 C 
ENDBRANCH   8  11
ENDBRANCH   7   8
ENDBRANCH   1   7
BRANCH   6  13
ATOM     13  N   LIG d   1      -7.087  79.545 118.397  0.00  0.00    -0.311 N 
ATOM     14  C   LIG d   1      -7.287  80.824 118.084  0.00  0.00     0.210 C 
ATOM     15  C   LIG d   1      -7.124  81.807 119.248  0.00  0.00     0.109 C 
ATOM     16  O   LIG d   1      -7.614  81.235 116.960  0.00  0.00    -0.276 OA
ATOM     17  H   LIG d   1      -6.857  79.298 119.339  0.00  0.00     0.149 HD
ENDBRANCH   6  13
BRANCH   5  18
ATOM     18  N   LIG d   1      -9.536  77.764 117.992  0.00  0.00     0.381 N 
ATOM     19  H   LIG d   1      -9.903  77.490 118.882  0.00  0.00    -0.090 HD
ATOM     20  H   LIG d   1     -10.084  77.320 117.276  0.00  0.00    -0.090 HD
ATOM     21  H   LIG d   1      -9.587  78.754 117.894  0.00  0.00    -0.090 HD
ENDBRANCH   5  18
BRANCH   3  22
ATOM     22  C   LIG d   1      -6.624  74.425 116.173  0.00  0.00     0.382 C 
ATOM     23  O   LIG d   1      -7.260  73.519 116.765  0.00  0.00    -0.241 OA
ATOM     24  O   LIG d   1      -5.801  74.120 115.289  0.00  0.00    -0.241 OA
ENDBRANCH   3  22
TORSDOF 7
ENDMDL
MODEL 3
REMARK VINA RESULT:      -5.7      3.177      5.811
REMARK  7 active torsions:
REMARK  status: ('A' for Active; 'I' for Inactive)
REMARK    1  A    between atoms: C_2  and  C_3 
REMARK    2  A    between atoms: C_3  and  O_6 
REMARK    3  A    between atoms: C_3  and  C_4 
REMARK    4  A    between atoms: C_7  and  O_6 
REMARK    5  A    between atoms: C_9  and  C_10 
REMARK    6  A    between atoms: N_15  and  C_14 
REMARK    7  A    between atoms: N_20  and  C_19 
REMARK       I    between atoms: C_22  and  N_20 
ROOT
ATOM      1  C   LIG d   1      -3.100  77.141 116.855  0.00  0.00     0.161 C 
ATOM      2  C   LIG d   1      -3.229  78.082 115.820  0.00  0.00     0.016 C 
ATOM      3  C   LIG d   1      -2.173  78.426 114.944  0.00  0.00     0.038 C 
ATOM      4  C   LIG d   1      -0.951  77.737 114.950  0.00  0.00     0.028 C 
ATOM      5  C   LIG d   1      -0.604  77.130 116.306  0.00  0.00    -0.047 C 
ATOM      6  C   LIG d   1      -1.808  76.299 116.806  0.00  0.00     0.091 C 
ENDROOT
BRANCH   1   7
ATOM      7  O   LIG d   1      -4.257  76.282 116.883  0.00  0.00    -0.368 OA
BRANCH   7   8
ATOM      8  C   LIG d   1      -5.375  76.693 116.058  0.00  0.00     0.119 C 
BRANCH   8   9
ATOM      9  C   LIG d   1      -6.565  76.972 116.997  0.00  0.00     0.028 C 
ATOM     10  C   LIG d   1      -7.695  75.941 116.834  0.00  0.00     0.006 C 
ENDBRANCH   8   9
BRANCH   8  11
ATOM     11  C   LIG d   1      -5.838  75.556 115.142  0.00  0.00     0.028 C 
ATOM     12  C   LIG d   1      -5.016  75.461 113.848  0.00  0.00     0.006 C 
ENDBRANCH   8  11
ENDBRANCH   7   8
ENDBRANCH   1   7
BRANCH   6  13
ATOM     13  N   LIG d   1      -1.584  75.740 118.165  0.00  0.00    -0.311 N 
ATOM     14  C   LIG d   1      -1.126  74.508 118.384  0.00  0.00     0.210 C 
ATOM     15  C   LIG d   1      -0.988  74.123 119.860  0.00  0.00     0.109 C 
ATOM     16  O   LIG d   1      -0.792  73.709 117.496  0.00  0.00    -0.276 OA
ATOM     17  H   LIG d   1      -1.800  76.331 118.943  0.00  0.00     0.149 HD
ENDBRANCH   6  13
BRANCH   5  18
ATOM     18  N   LIG d   1       0.621  76.328 116.134  0.00  0.00     0.381 N 
ATOM     19  H   LIG d   1       0.677  75.636 116.855  0.00  0.00    -0.090 HD
ATOM     20  H   LIG d   1       1.420  76.932 116.215  0.00  0.00    -0.090 HD
ATOM     21  H   LIG d   1       0.618  75.887 115.241  0.00  0.00    -0.090 HD
ENDBRANCH   5  18
BRANCH   3  22
ATOM     22  C   LIG d   1      -2.321  79.497 114.076  0.00  0.00     0.382 C 
ATOM     23  O   LIG d   1      -1.597  79.581 113.055  0.00  0.00    -0.241 OA
ATOM     24  O   LIG d   1      -3.139  80.403 114.325  0.00  0.00    -0.241 OA
ENDBRANCH   3  22
TORSDOF 7
ENDMDL
MODEL 4
REMARK VINA RESULT:      -5.5      2.903      5.268
REMARK  7 active torsions:
REMARK  status: ('A' for Active; 'I' for Inactive)
REMARK    1  A    between atoms: C_2  and  C_3 
REMARK    2  A    between atoms: C_3  and  O_6 
REMARK    3  A    between atoms: C_3  and  C_4 
REMARK    4  A    between atoms: C_7  and  O_6 
REMARK    5  A    between atoms: C_9  and  C_10 
REMARK    6  A    between atoms: N_15  and  C_14 
REMARK    7  A    between atoms: N_20  and  C_19 
REMARK       I    between atoms: C_22  and  N_20 
ROOT
ATOM      1  C   LIG d   1      -6.732  79.327 118.044  0.00  0.00     0.161 C 
ATOM      2  C   LIG d   1      -7.065  78.087 117.473  0.00  0.00     0.016 C 
ATOM      3  C   LIG d   1      -8.348  77.503 117.577  0.00  0.00     0.038 C 
ATOM      4  C   LIG d   1      -9.435  78.194 118.133  0.00  0.00     0.028 C 
ATOM      5  C   LIG d   1      -9.024  79.236 119.168  0.00  0.00    -0.047 C 
ATOM      6  C   LIG d   1      -7.934  80.146 118.559  0.00  0.00     0.091 C 
ENDROOT
BRANCH   1   7
ATOM      7  O   LIG d   1      -5.960  80.105 117.106  0.00  0.00    -0.368 OA
BRANCH   7   8
ATOM      8  C   LIG d   1      -4.571  80.326 117.453  0.00  0.00     0.119 C 
BRANCH   8   9
ATOM      9  C   LIG d   1      -3.717  79.434 116.531  0.00  0.00     0.028 C 
ATOM     10  C   LIG d   1      -2.790  80.254 115.616  0.00  0.00     0.006 C 
ENDBRANCH   8   9
BRANCH   8  11
ATOM     11  C   LIG d   1      -4.268  79.845 118.875  0.00  0.00     0.028 C 
ATOM     12  C   LIG d   1      -2.969  80.439 119.441  0.00  0.00     0.006 C 
ENDBRANCH   8  11
ENDBRANCH   7   8
ENDBRANCH   1   7
BRANCH   6  13
ATOM     13  N   LIG d   1      -7.416  81.141 119.534  0.00  0.00    -0.311 N 
ATOM     14  C   LIG d   1      -7.893  82.380 119.641  0.00  0.00     0.210 C 
ATOM     15  C   LIG d   1      -7.203  83.250 120.696  0.00  0.00     0.109 C 
ATOM     16  O   LIG d   1      -8.843  82.831 118.984  0.00  0.00    -0.276 OA
ATOM     17  H   LIG d   1      -6.664  80.849 120.128  0.00  0.00     0.149 HD
ENDBRANCH   6  13
BRANCH   5  18
ATOM     18  N   LIG d   1     -10.239  79.974 119.564  0.00  0.00     0.381 N 
ATOM     19  H   LIG d   1      -9.988  80.881 119.904  0.00  0.00    -0.090 HD
ATOM     20  H   LIG d   1     -10.696  79.474 120.306  0.00  0.00    -0.090 HD
ATOM     21  H   LIG d   1     -10.854  80.062 118.785  0.00  0.00    -0.090 HD
ENDBRANCH   5  18
BRANCH   3  22
ATOM     22  C   LIG d   1      -8.545  76.197 117.156  0.00  0.00     0.382 C 
ATOM     23  O   LIG d   1      -9.708  75.738 117.058  0.00  0.00    -0.241 OA
ATOM     24  O   LIG d   1      -7.571  75.457 116.917  0.00  0.00    -0.241 OA
ENDBRANCH   3  22
TORSDOF 7
ENDMDL
MODEL 5
REMARK VINA RESULT:      -5.5      1.522      2.146
REMARK  7 active torsions:
REMARK  status: ('A' for Active; 'I' for Inactive)
REMARK    1  A    between atoms: C_2  and  C_3 
REMARK    2  A    between atoms: C_3  and  O_6 
REMARK    3  A    between atoms: C_3  and  C_4 
REMARK    4  A    between atoms: C_7  and  O_6 
REMARK    5  A    between atoms: C_9  and  C_10 
REMARK    6  A    between atoms: N_15  and  C_14 
REMARK    7  A    between atoms: N_20  and  C_19 
REMARK       I    between atoms: C_22  and  N_20 
ROOT
ATOM      1  C   LIG d   1      -6.398  78.197 117.508  0.00  0.00     0.161 C 
ATOM      2  C   LIG d   1      -7.775  77.981 117.687  0.00  0.00     0.016 C 
ATOM      3  C   LIG d   1      -8.625  78.894 118.353  0.00  0.00     0.038 C 
ATOM      4  C   LIG d   1      -8.182  80.162 118.756  0.00  0.00     0.028 C 
ATOM      5  C   LIG d   1      -6.686  80.216 119.047  0.00  0.00    -0.047 C 
ATOM      6  C   LIG d   1      -5.918  79.624 117.842  0.00  0.00     0.091 C 
ENDROOT
BRANCH   1   7
ATOM      7  O   LIG d   1      -6.019  77.842 116.163  0.00  0.00    -0.368 OA
BRANCH   7   8
ATOM      8  C   LIG d   1      -5.449  76.522 115.989  0.00  0.00     0.119 C 
BRANCH   8   9
ATOM      9  C   LIG d   1      -3.928  76.695 115.808  0.00  0.00     0.028 C 
ATOM     10  C   LIG d   1      -3.133  76.220 117.036  0.00  0.00     0.006 C 
ENDBRANCH   8   9
BRANCH   8  11
ATOM     11  C   LIG d   1      -5.939  75.870 114.693  0.00  0.00     0.028 C 
ATOM     12  C   LIG d   1      -5.353  74.467 114.473  0.00  0.00     0.006 C 
ENDBRANCH   8  11
ENDBRANCH   7   8
ENDBRANCH   1   7
BRANCH   6  13
ATOM     13  N   LIG d   1      -4.453  79.562 118.079  0.00  0.00    -0.311 N 
ATOM     14  C   LIG d   1      -3.552  80.070 117.240  0.00  0.00     0.210 C 
ATOM     15  C   LIG d   1      -2.092  79.880 117.665  0.00  0.00     0.109 C 
ATOM     16  O   LIG d   1      -3.824  80.689 116.200  0.00  0.00    -0.276 OA
ATOM     17  H   LIG d   1      -4.145  79.105 118.915  0.00  0.00     0.149 HD
ENDBRANCH   6  13
BRANCH   5  18
ATOM     18  N   LIG d   1      -6.336  81.623 119.321  0.00  0.00     0.381 N 
ATOM     19  H   LIG d   1      -5.417  81.817 118.975  0.00  0.00    -0.090 HD
ATOM     20  H   LIG d   1      -6.337  81.770 120.315  0.00  0.00    -0.090 HD
ATOM     21  H   LIG d   1      -6.996  82.229 118.887  0.00  0.00    -0.090 HD
ENDBRANCH   5  18
BRANCH   3  22
ATOM     22  C   LIG d   1      -9.926  78.523 118.658  0.00  0.00     0.382 C 
ATOM     23  O   LIG d   1     -10.550  77.743 117.899  0.00  0.00    -0.241 OA
ATOM     24  O   LIG d   1     -10.499  78.995 119.658  0.00  0.00    -0.241 OA
ENDBRANCH   3  22
TORSDOF 7
ENDMDL
MODEL 6
REMARK VINA RESULT:      -5.3      3.992      6.219
REMARK  7 active torsions:
REMARK  status: ('A' for Active; 'I' for Inactive)
REMARK    1  A    between atoms: C_2  and  C_3 
REMARK    2  A    between atoms: C_3  and  O_6 
REMARK    3  A    between atoms: C_3  and  C_4 
REMARK    4  A    between atoms: C_7  and  O_6 
REMARK    5  A    between atoms: C_9  and  C_10 
REMARK    6  A    between atoms: N_15  and  C_14 
REMARK    7  A    between atoms: N_20  and  C_19 
REMARK       I    between atoms: C_22  and  N_20 
ROOT
ATOM      1  C   LIG d   1      -1.346  77.219 115.047  0.00  0.00     0.161 C 
ATOM      2  C   LIG d   1      -2.647  77.082 114.535  0.00  0.00     0.016 C 
ATOM      3  C   LIG d   1      -3.580  76.139 115.024  0.00  0.00     0.038 C 
ATOM      4  C   LIG d   1      -3.325  75.367 116.166  0.00  0.00     0.028 C 
ATOM      5  C   LIG d   1      -1.840  75.112 116.406  0.00  0.00    -0.047 C 
ATOM      6  C   LIG d   1      -1.087  76.462 116.367  0.00  0.00     0.091 C 
ENDROOT
BRANCH   1   7
ATOM      7  O   LIG d   1      -1.026  78.616 115.201  0.00  0.00    -0.368 OA
BRANCH   7   8
ATOM      8  C   LIG d   1      -2.153  79.522 115.287  0.00  0.00     0.119 C 
BRANCH   8   9
ATOM      9  C   LIG d   1      -1.748  80.833 114.586  0.00  0.00     0.028 C 
ATOM     10  C   LIG d   1      -2.626  81.139 113.361  0.00  0.00     0.006 C 
ENDBRANCH   8   9
BRANCH   8  11
ATOM     11  C   LIG d   1      -2.443  79.913 116.740  0.00  0.00     0.028 C 
ATOM     12  C   LIG d   1      -3.947  80.007 117.042  0.00  0.00     0.006 C 
ENDBRANCH   8  11
ENDBRANCH   7   8
ENDBRANCH   1   7
BRANCH   6  13
ATOM     13  N   LIG d   1       0.383  76.295 116.509  0.00  0.00    -0.311 N 
ATOM     14  C   LIG d   1       1.126  77.024 117.339  0.00  0.00     0.210 C 
ATOM     15  C   LIG d   1       2.624  76.704 117.316  0.00  0.00     0.109 C 
ATOM     16  O   LIG d   1       0.683  77.883 118.116  0.00  0.00    -0.276 OA
ATOM     17  H   LIG d   1       0.820  75.598 115.938  0.00  0.00     0.149 HD
ENDBRANCH   6  13
BRANCH   5  18
ATOM     18  N   LIG d   1      -1.711  74.416 117.700  0.00  0.00     0.381 N 
ATOM     19  H   LIG d   1      -1.138  73.603 117.591  0.00  0.00    -0.090 HD
ATOM     20  H   LIG d   1      -2.623  74.121 118.003  0.00  0.00    -0.090 HD
ATOM     21  H   LIG d   1      -1.309  75.026 118.377  0.00  0.00    -0.090 HD
ENDBRANCH   5  18
BRANCH   3  22
ATOM     22  C   LIG d   1      -4.770  75.933 114.342  0.00  0.00     0.382 C 
ATOM     23  O   LIG d   1      -4.759  75.392 113.210  0.00  0.00    -0.241 OA
ATOM     24  O   LIG d   1      -5.850  76.323 114.825  0.00  0.00    -0.241 OA
ENDBRANCH   3  22
TORSDOF 7
ENDMDL
MODEL 7
REMARK VINA RESULT:      -5.3      2.518      5.275
REMARK  7 active torsions:
REMARK  status: ('A' for Active; 'I' for Inactive)
REMARK    1  A    between atoms: C_2  and  C_3 
REMARK    2  A    between atoms: C_3  and  O_6 
REMARK    3  A    between atoms: C_3  and  C_4 
REMARK    4  A    between atoms: C_7  and  O_6 
REMARK    5  A    between atoms: C_9  and  C_10 
REMARK    6  A    between atoms: N_15  and  C_14 
REMARK    7  A    between atoms: N_20  and  C_19 
REMARK       I    between atoms: C_22  and  N_20 
ROOT
ATOM      1  C   LIG d   1      -3.811  77.455 116.421  0.00  0.00     0.161 C 
ATOM      2  C   LIG d   1      -2.795  76.487 116.492  0.00  0.00     0.016 C 
ATOM      3  C   LIG d   1      -2.148  76.124 117.696  0.00  0.00     0.038 C 
ATOM      4  C   LIG d   1      -2.582  76.600 118.943  0.00  0.00     0.028 C 
ATOM      5  C   LIG d   1      -3.269  77.958 118.867  0.00  0.00    -0.047 C 
ATOM      6  C   LIG d   1      -4.373  77.903 117.786  0.00  0.00     0.091 C 
ENDROOT
BRANCH   1   7
ATOM      7  O   LIG d   1      -4.875  76.984 115.571  0.00  0.00    -0.368 OA
BRANCH   7   8
ATOM      8  C   LIG d   1      -5.689  75.911 116.104  0.00  0.00     0.119 C 
BRANCH   8   9
ATOM      9  C   LIG d   1      -5.614  74.735 115.110  0.00  0.00     0.028 C 
ATOM     10  C   LIG d   1      -5.093  75.167 113.729  0.00  0.00     0.006 C 
ENDBRANCH   8   9
BRANCH   8  11
ATOM     11  C   LIG d   1      -7.168  76.306 116.154  0.00  0.00     0.028 C 
ATOM     12  C   LIG d   1      -7.838  75.938 117.487  0.00  0.00     0.006 C 
ENDBRANCH   8  11
ENDBRANCH   7   8
ENDBRANCH   1   7
BRANCH   6  13
ATOM     13  N   LIG d   1      -5.040  79.216 117.589  0.00  0.00    -0.311 N 
ATOM     14  C   LIG d   1      -6.165  79.568 118.208  0.00  0.00     0.210 C 
ATOM     15  C   LIG d   1      -6.695  80.959 117.847  0.00  0.00     0.109 C 
ATOM     16  O   LIG d   1      -6.758  78.873 119.047  0.00  0.00    -0.276 OA
ATOM     17  H   LIG d   1      -4.610  79.854 116.948  0.00  0.00     0.149 HD
ENDBRANCH   6  13
BRANCH   5  18
ATOM     18  N   LIG d   1      -3.791  78.269 120.211  0.00  0.00     0.381 N 
ATOM     19  H   LIG d   1      -3.103  78.045 120.902  0.00  0.00    -0.090 HD
ATOM     20  H   LIG d   1      -4.605  77.705 120.382  0.00  0.00    -0.090 HD
ATOM     21  H   LIG d   1      -4.029  79.235 120.270  0.00  0.00    -0.090 HD
ENDBRANCH   5  18
BRANCH   3  22
ATOM     22  C   LIG d   1      -1.029  75.307 117.656  0.00  0.00     0.382 C 
ATOM     23  O   LIG d   1      -1.159  74.074 117.468  0.00  0.00    -0.241 OA
ATOM     24  O   LIG d   1       0.107  75.781 117.849  0.00  0.00    -0.241 OA
ENDBRANCH   3  22
TORSDOF 7
ENDMDL
MODEL 8
REMARK VINA RESULT:      -5.3     12.552     14.580
REMARK  7 active torsions:
REMARK  status: ('A' for Active; 'I' for Inactive)
REMARK    1  A    between atoms: C_2  and  C_3 
REMARK    2  A    between atoms: C_3  and  O_6 
REMARK    3  A    between atoms: C_3  and  C_4 
REMARK    4  A    between atoms: C_7  and  O_6 
REMARK    5  A    between atoms: C_9  and  C_10 
REMARK    6  A    between atoms: N_15  and  C_14 
REMARK    7  A    between atoms: N_20  and  C_19 
REMARK       I    between atoms: C_22  and  N_20 
ROOT
ATOM      1  C   LIG d   1      -3.442  90.652 117.723  0.00  0.00     0.161 C 
ATOM      2  C   LIG d   1      -4.224  90.143 116.673  0.00  0.00     0.016 C 
ATOM      3  C   LIG d   1      -5.326  90.833 116.117  0.00  0.00     0.038 C 
ATOM      4  C   LIG d   1      -5.630  92.155 116.475  0.00  0.00     0.028 C 
ATOM      5  C   LIG d   1      -5.180  92.519 117.886  0.00  0.00    -0.047 C 
ATOM      6  C   LIG d   1      -3.690  92.139 118.051  0.00  0.00     0.091 C 
ENDROOT
BRANCH   1   7
ATOM      7  O   LIG d   1      -2.046  90.426 117.447  0.00  0.00    -0.368 OA
BRANCH   7   8
ATOM      8  C   LIG d   1      -1.320  89.649 118.431  0.00  0.00     0.119 C 
BRANCH   8   9
ATOM      9  C   LIG d   1       0.105  89.428 117.886  0.00  0.00     0.028 C 
ATOM     10  C   LIG d   1       0.433  90.359 116.707  0.00  0.00     0.006 C 
ENDBRANCH   8   9
BRANCH   8  11
ATOM     11  C   LIG d   1      -1.916  88.247 118.584  0.00  0.00     0.028 C 
ATOM     12  C   LIG d   1      -1.518  87.301 117.439  0.00  0.00     0.006 C 
ENDBRANCH   8  11
ENDBRANCH   7   8
ENDBRANCH   1   7
BRANCH   6  13
ATOM     13  N   LIG d   1      -3.193  92.385 119.430  0.00  0.00    -0.311 N 
ATOM     14  C   LIG d   1      -2.573  93.505 119.797  0.00  0.00     0.210 C 
ATOM     15  C   LIG d   1      -2.123  93.546 121.261  0.00  0.00     0.109 C 
ATOM     16  O   LIG d   1      -2.383  94.483 119.058  0.00  0.00    -0.276 OA
ATOM     17  H   LIG d   1      -3.333  91.656 120.102  0.00  0.00     0.149 HD
ENDBRANCH   6  13
BRANCH   5  18
ATOM     18  N   LIG d   1      -5.434  93.959 118.077  0.00  0.00     0.381 N 
ATOM     19  H   LIG d   1      -5.486  94.415 117.188  0.00  0.00    -0.090 HD
ATOM     20  H   LIG d   1      -4.669  94.359 118.592  0.00  0.00    -0.090 HD
ATOM     21  H   LIG d   1      -6.286  94.092 118.577  0.00  0.00    -0.090 HD
ENDBRANCH   5  18
BRANCH   3  22
ATOM     22  C   LIG d   1      -6.161  90.185 115.220  0.00  0.00     0.382 C 
ATOM     23  O   LIG d   1      -5.793  89.112 114.683  0.00  0.00    -0.241 OA
ATOM     24  O   LIG d   1      -7.259  90.682 114.907  0.00  0.00    -0.241 OA
ENDBRANCH   3  22
TORSDOF 7
ENDMDL
MODEL 9
REMARK VINA RESULT:      -5.2      1.999      4.654
REMARK  7 active torsions:
REMARK  status: ('A' for Active; 'I' for Inactive)
REMARK    1  A    between atoms: C_2  and  C_3 
REMARK    2  A    between atoms: C_3  and  O_6 
REMARK    3  A    between atoms: C_3  and  C_4 
REMARK    4  A    between atoms: C_7  and  O_6 
REMARK    5  A    between atoms: C_9  and  C_10 
REMARK    6  A    between atoms: N_15  and  C_14 
REMARK    7  A    between atoms: N_20  and  C_19 
REMARK       I    between atoms: C_22  and  N_20 
ROOT
ATOM      1  C   LIG d   1      -5.062  76.982 116.529  0.00  0.00     0.161 C 
ATOM      2  C   LIG d   1      -5.301  75.658 116.124  0.00  0.00     0.016 C 
ATOM      3  C   LIG d   1      -6.523  74.984 116.351  0.00  0.00     0.038 C 
ATOM      4  C   LIG d   1      -7.649  75.642 116.867  0.00  0.00     0.028 C 
ATOM      5  C   LIG d   1      -7.300  76.833 117.753  0.00  0.00    -0.047 C 
ATOM      6  C   LIG d   1      -6.316  77.752 116.994  0.00  0.00     0.091 C 
ENDROOT
BRANCH   1   7
ATOM      7  O   LIG d   1      -4.394  77.703 115.474  0.00  0.00    -0.368 OA
BRANCH   7   8
ATOM      8  C   LIG d   1      -2.981  77.953 115.669  0.00  0.00     0.119 C 
BRANCH   8   9
ATOM      9  C   LIG d   1      -2.208  76.846 114.926  0.00  0.00     0.028 C 
ATOM     10  C   LIG d   1      -1.450  75.914 115.885  0.00  0.00     0.006 C 
ENDBRANCH   8   9
BRANCH   8  11
ATOM     11  C   LIG d   1      -2.586  77.804 117.142  0.00  0.00     0.028 C 
ATOM     12  C   LIG d   1      -2.252  79.148 117.808  0.00  0.00     0.006 C 
ENDBRANCH   8  11
ENDBRANCH   7   8
ENDBRANCH   1   7
BRANCH   6  13
ATOM     13  N   LIG d   1      -5.858  78.899 117.822  0.00  0.00    -0.311 N 
ATOM     14  C   LIG d   1      -6.458  80.088 117.824  0.00  0.00     0.210 C 
ATOM     15  C   LIG d   1      -5.812  81.137 118.734  0.00  0.00     0.109 C 
ATOM     16  O   LIG d   1      -7.483  80.363 117.183  0.00  0.00    -0.276 OA
ATOM     17  H   LIG d   1      -5.051  78.753 118.396  0.00  0.00     0.149 HD
ENDBRANCH   6  13
BRANCH   5  18
ATOM     18  N   LIG d   1      -8.562  77.508 118.110  0.00  0.00     0.381 N 
ATOM     19  H   LIG d   1      -8.465  78.496 117.988  0.00  0.00    -0.090 HD
ATOM     20  H   LIG d   1      -8.764  77.329 119.078  0.00  0.00    -0.090 HD
ATOM     21  H   LIG d   1      -9.305  77.167 117.540  0.00  0.00    -0.090 HD
ENDBRANCH   5  18
BRANCH   3  22
ATOM     22  C   LIG d   1      -6.614  73.624 116.096  0.00  0.00     0.382 C 
ATOM     23  O   LIG d   1      -7.229  72.877 116.894  0.00  0.00    -0.241 OA
ATOM     24  O   LIG d   1      -6.052  73.128 115.101  0.00  0.00    -0.241 OA
ENDBRANCH   3  22
TORSDOF 7
ENDMDL
