MODEL 1
REMARK VINA RESULT:      -6.3      0.000      0.000
REMARK  7 active torsions:
REMARK  status: ('A' for Active; 'I' for Inactive)
REMARK    1  A    between atoms: C_2  and  C_3 
REMARK    2  A    between atoms: C_3  and  O_6 
REMARK    3  A    between atoms: C_3  and  C_4 
REMARK    4  A    between atoms: C_7  and  O_6 
REMARK    5  A    between atoms: C_9  and  C_10 
REMARK    6  A    between atoms: N_15  and  C_14 
REMARK    7  A    between atoms: N_20  and  C_19 
REMARK       I    between atoms: C_22  and  N_20 
ROOT
ATOM      1  C   LIG d   1       0.130  82.718 111.827  0.00  0.00     0.161 C 
ATOM      2  C   LIG d   1      -1.092  82.354 112.416  0.00  0.00     0.016 C 
ATOM      3  C   LIG d   1      -1.689  81.083 112.248  0.00  0.00     0.038 C 
ATOM      4  C   LIG d   1      -1.026  80.033 111.597  0.00  0.00     0.028 C 
ATOM      5  C   LIG d   1      -0.017  80.506 110.556  0.00  0.00    -0.047 C 
ATOM      6  C   LIG d   1       0.921  81.549 111.204  0.00  0.00     0.091 C 
ENDROOT
BRANCH   1   7
ATOM      7  O   LIG d   1       0.945  83.421 112.785  0.00  0.00    -0.368 OA
BRANCH   7   8
ATOM      8  C   LIG d   1       0.902  84.867 112.719  0.00  0.00     0.119 C 
BRANCH   8   9
ATOM      9  C   LIG d   1       2.256  85.346 112.159  0.00  0.00     0.028 C 
ATOM     10  C   LIG d   1       2.164  85.769 110.684  0.00  0.00     0.006 C 
ENDBRANCH   8   9
BRANCH   8  11
ATOM     11  C   LIG d   1       0.799  85.486 114.117  0.00  0.00     0.028 C 
ATOM     12  C   LIG d   1       0.713  84.431 115.231  0.00  0.00     0.006 C 
ENDBRANCH   8  11
ENDBRANCH   7   8
ENDBRANCH   1   7
BRANCH   6  13
ATOM     13  N   LIG d   1       1.886  82.126 110.232  0.00  0.00    -0.311 N 
ATOM     14  C   LIG d   1       3.204  82.132 110.423  0.00  0.00     0.210 C 
ATOM     15  C   LIG d   1       4.016  82.795 109.305  0.00  0.00     0.109 C 
ATOM     16  O   LIG d   1       3.780  81.624 111.396  0.00  0.00    -0.276 OA
ATOM     17  H   LIG d   1       1.506  82.532 109.399  0.00  0.00     0.149 HD
ENDBRANCH   6  13
BRANCH   5  18
ATOM     18  N   LIG d   1       0.697  79.317 110.055  0.00  0.00     0.381 N 
ATOM     19  H   LIG d   1       0.800  78.648 110.791  0.00  0.00    -0.090 HD
ATOM     20  H   LIG d   1       1.614  79.593 109.749  0.00  0.00    -0.090 HD
ATOM     21  H   LIG d   1       0.195  78.912 109.296  0.00  0.00    -0.090 HD
ENDBRANCH   5  18
BRANCH   3  22
ATOM     22  C   LIG d   1      -2.982  80.866 112.700  0.00  0.00     0.382 C 
ATOM     23  O   LIG d   1      -3.330  79.721 113.077  0.00  0.00    -0.241 OA
ATOM     24  O   LIG d   1      -3.817  81.790 112.695  0.00  0.00    -0.241 OA
ENDBRANCH   3  22
TORSDOF 7
ENDMDL
MODEL 2
REMARK VINA RESULT:      -6.2      0.542      1.748
REMARK  7 active torsions:
REMARK  status: ('A' for Active; 'I' for Inactive)
REMARK    1  A    between atoms: C_2  and  C_3 
REMARK    2  A    between atoms: C_3  and  O_6 
REMARK    3  A    between atoms: C_3  and  C_4 
REMARK    4  A    between atoms: C_7  and  O_6 
REMARK    5  A    between atoms: C_9  and  C_10 
REMARK    6  A    between atoms: N_15  and  C_14 
REMARK    7  A    between atoms: N_20  and  C_19 
REMARK       I    between atoms: C_22  and  N_20 
ROOT
ATOM      1  C   LIG d   1       0.199  82.705 111.933  0.00  0.00     0.161 C 
ATOM      2  C   LIG d   1      -1.035  82.343 112.497  0.00  0.00     0.016 C 
ATOM      3  C   LIG d   1      -1.658  81.094 112.271  0.00  0.00     0.038 C 
ATOM      4  C   LIG d   1      -1.012  80.058 111.582  0.00  0.00     0.028 C 
ATOM      5  C   LIG d   1       0.016  80.552 110.569  0.00  0.00    -0.047 C 
ATOM      6  C   LIG d   1       0.971  81.546 111.268  0.00  0.00     0.091 C 
ENDROOT
BRANCH   1   7
ATOM      7  O   LIG d   1       1.021  83.350 112.926  0.00  0.00    -0.368 OA
BRANCH   7   8
ATOM      8  C   LIG d   1       1.436  84.706 112.628  0.00  0.00     0.119 C 
BRANCH   8   9
ATOM      9  C   LIG d   1       0.994  85.594 113.807  0.00  0.00     0.028 C 
ATOM     10  C   LIG d   1       2.017  86.698 114.126  0.00  0.00     0.006 C 
ENDBRANCH   8   9
BRANCH   8  11
ATOM     11  C   LIG d   1       0.698  85.258 111.405  0.00  0.00     0.028 C 
ATOM     12  C   LIG d   1       1.651  85.812 110.334  0.00  0.00     0.006 C 
ENDBRANCH   8  11
ENDBRANCH   7   8
ENDBRANCH   1   7
BRANCH   6  13
ATOM     13  N   LIG d   1       1.956  82.142 110.328  0.00  0.00    -0.311 N 
ATOM     14  C   LIG d   1       3.272  82.113 110.530  0.00  0.00     0.210 C 
ATOM     15  C   LIG d   1       4.108  82.803 109.447  0.00  0.00     0.109 C 
ATOM     16  O   LIG d   1       3.829  81.553 111.486  0.00  0.00    -0.276 OA
ATOM     17  H   LIG d   1       1.592  82.589 109.510  0.00  0.00     0.149 HD
ENDBRANCH   6  13
BRANCH   5  18
ATOM     18  N   LIG d   1       0.709  79.369 110.025  0.00  0.00     0.381 N 
ATOM     19  H   LIG d   1       0.055  78.785 109.543  0.00  0.00    -0.090 HD
ATOM     20  H   LIG d   1       1.101  78.843 110.786  0.00  0.00    -0.090 HD
ATOM     21  H   LIG d   1       1.432  79.655 109.402  0.00  0.00    -0.090 HD
ENDBRANCH   5  18
BRANCH   3  22
ATOM     22  C   LIG d   1      -2.959  80.887 112.704  0.00  0.00     0.382 C 
ATOM     23  O   LIG d   1      -3.759  81.851 112.769  0.00  0.00    -0.241 OA
ATOM     24  O   LIG d   1      -3.330  79.756 113.072  0.00  0.00    -0.241 OA
ENDBRANCH   3  22
TORSDOF 7
ENDMDL
MODEL 3
REMARK VINA RESULT:      -6.0      1.049      1.628
REMARK  7 active torsions:
REMARK  status: ('A' for Active; 'I' for Inactive)
REMARK    1  A    between atoms: C_2  and  C_3 
REMARK    2  A    between atoms: C_3  and  O_6 
REMARK    3  A    between atoms: C_3  and  C_4 
REMARK    4  A    between atoms: C_7  and  O_6 
REMARK    5  A    between atoms: C_9  and  C_10 
REMARK    6  A    between atoms: N_15  and  C_14 
REMARK    7  A    between atoms: N_20  and  C_19 
REMARK       I    between atoms: C_22  and  N_20 
ROOT
ATOM      1  C   LIG d   1       0.078  82.799 111.820  0.00  0.00     0.161 C 
ATOM      2  C   LIG d   1      -1.138  82.412 112.406  0.00  0.00     0.016 C 
ATOM      3  C   LIG d   1      -1.700  81.124 112.255  0.00  0.00     0.038 C 
ATOM      4  C   LIG d   1      -1.004  80.081 111.626  0.00  0.00     0.028 C 
ATOM      5  C   LIG d   1      -0.000  80.564 110.585  0.00  0.00    -0.047 C 
ATOM      6  C   LIG d   1       0.905  81.642 111.223  0.00  0.00     0.091 C 
ENDROOT
BRANCH   1   7
ATOM      7  O   LIG d   1       0.866  83.540 112.773  0.00  0.00    -0.368 OA
BRANCH   7   8
ATOM      8  C   LIG d   1       0.648  83.217 114.168  0.00  0.00     0.119 C 
BRANCH   8   9
ATOM      9  C   LIG d   1       0.545  84.547 114.940  0.00  0.00     0.028 C 
ATOM     10  C   LIG d   1       1.215  85.713 114.192  0.00  0.00     0.006 C 
ENDBRANCH   8   9
BRANCH   8  11
ATOM     11  C   LIG d   1       1.856  82.492 114.768  0.00  0.00     0.028 C 
ATOM     12  C   LIG d   1       1.653  80.971 114.859  0.00  0.00     0.006 C 
ENDBRANCH   8  11
ENDBRANCH   7   8
ENDBRANCH   1   7
BRANCH   6  13
ATOM     13  N   LIG d   1       1.862  82.229 110.248  0.00  0.00    -0.311 N 
ATOM     14  C   LIG d   1       3.182  82.221 110.421  0.00  0.00     0.210 C 
ATOM     15  C   LIG d   1       3.985  82.897 109.305  0.00  0.00     0.109 C 
ATOM     16  O   LIG d   1       3.767  81.691 111.378  0.00  0.00    -0.276 OA
ATOM     17  H   LIG d   1       1.474  82.652 109.428  0.00  0.00     0.149 HD
ENDBRANCH   6  13
BRANCH   5  18
ATOM     18  N   LIG d   1       0.750  79.386 110.109  0.00  0.00     0.381 N 
ATOM     19  H   LIG d   1       0.128  78.610 109.999  0.00  0.00    -0.090 HD
ATOM     20  H   LIG d   1       1.442  79.142 110.796  0.00  0.00    -0.090 HD
ATOM     21  H   LIG d   1       1.192  79.592 109.240  0.00  0.00    -0.090 HD
ENDBRANCH   5  18
BRANCH   3  22
ATOM     22  C   LIG d   1      -2.990  80.879 112.701  0.00  0.00     0.382 C 
ATOM     23  O   LIG d   1      -3.318  79.726 113.069  0.00  0.00    -0.241 OA
ATOM     24  O   LIG d   1      -3.842  81.788 112.698  0.00  0.00    -0.241 OA
ENDBRANCH   3  22
TORSDOF 7
ENDMDL
MODEL 4
REMARK VINA RESULT:      -5.8      2.440      5.846
REMARK  7 active torsions:
REMARK  status: ('A' for Active; 'I' for Inactive)
REMARK    1  A    between atoms: C_2  and  C_3 
REMARK    2  A    between atoms: C_3  and  O_6 
REMARK    3  A    between atoms: C_3  and  C_4 
REMARK    4  A    between atoms: C_7  and  O_6 
REMARK    5  A    between atoms: C_9  and  C_10 
REMARK    6  A    between atoms: N_15  and  C_14 
REMARK    7  A    between atoms: N_20  and  C_19 
REMARK       I    between atoms: C_22  and  N_20 
ROOT
ATOM      1  C   LIG d   1       0.348  84.005 110.748  0.00  0.00     0.161 C 
ATOM      2  C   LIG d   1       1.297  85.038 110.673  0.00  0.00     0.016 C 
ATOM      3  C   LIG d   1       1.772  85.742 111.803  0.00  0.00     0.038 C 
ATOM      4  C   LIG d   1       1.440  85.357 113.110  0.00  0.00     0.028 C 
ATOM      5  C   LIG d   1       0.095  84.645 113.209  0.00  0.00    -0.047 C 
ATOM      6  C   LIG d   1       0.058  83.496 112.176  0.00  0.00     0.091 C 
ENDROOT
BRANCH   1   7
ATOM      7  O   LIG d   1       0.747  82.912 109.898  0.00  0.00    -0.368 OA
BRANCH   7   8
ATOM      8  C   LIG d   1       1.870  82.122 110.361  0.00  0.00     0.119 C 
BRANCH   8   9
ATOM      9  C   LIG d   1       2.995  82.260 109.317  0.00  0.00     0.028 C 
ATOM     10  C   LIG d   1       4.238  82.967 109.884  0.00  0.00     0.006 C 
ENDBRANCH   8   9
BRANCH   8  11
ATOM     11  C   LIG d   1       1.526  80.630 110.391  0.00  0.00     0.028 C 
ATOM     12  C   LIG d   1       0.145  80.324 109.791  0.00  0.00     0.006 C 
ENDBRANCH   8  11
ENDBRANCH   7   8
ENDBRANCH   1   7
BRANCH   6  13
ATOM     13  N   LIG d   1      -1.256  82.801 112.147  0.00  0.00    -0.311 N 
ATOM     14  C   LIG d   1      -1.512  81.690 112.835  0.00  0.00     0.210 C 
ATOM     15  C   LIG d   1      -2.924  81.126 112.649  0.00  0.00     0.109 C 
ATOM     16  O   LIG d   1      -0.715  81.136 113.607  0.00  0.00    -0.276 OA
ATOM     17  H   LIG d   1      -1.970  83.200 111.571  0.00  0.00     0.149 HD
ENDBRANCH   6  13
BRANCH   5  18
ATOM     18  N   LIG d   1      -0.061  84.178 114.599  0.00  0.00     0.381 N 
ATOM     19  H   LIG d   1       0.707  84.500 115.153  0.00  0.00    -0.090 HD
ATOM     20  H   LIG d   1      -0.057  83.173 114.607  0.00  0.00    -0.090 HD
ATOM     21  H   LIG d   1      -0.918  84.516 114.978  0.00  0.00    -0.090 HD
ENDBRANCH   5  18
BRANCH   3  22
ATOM     22  C   LIG d   1       2.558  86.871 111.629  0.00  0.00     0.382 C 
ATOM     23  O   LIG d   1       2.025  88.007 111.599  0.00  0.00    -0.241 OA
ATOM     24  O   LIG d   1       3.787  86.765 111.457  0.00  0.00    -0.241 OA
ENDBRANCH   3  22
TORSDOF 7
ENDMDL
MODEL 5
REMARK VINA RESULT:      -5.6      2.319      4.362
REMARK  7 active torsions:
REMARK  status: ('A' for Active; 'I' for Inactive)
REMARK    1  A    between atoms: C_2  and  C_3 
REMARK    2  A    between atoms: C_3  and  O_6 
REMARK    3  A    between atoms: C_3  and  C_4 
REMARK    4  A    between atoms: C_7  and  O_6 
REMARK    5  A    between atoms: C_9  and  C_10 
REMARK    6  A    between atoms: N_15  and  C_14 
REMARK    7  A    between atoms: N_20  and  C_19 
REMARK       I    between atoms: C_22  and  N_20 
ROOT
ATOM      1  C   LIG d   1       1.878  82.974 112.490  0.00  0.00     0.161 C 
ATOM      2  C   LIG d   1       0.920  81.947 112.503  0.00  0.00     0.016 C 
ATOM      3  C   LIG d   1      -0.467  82.175 112.349  0.00  0.00     0.038 C 
ATOM      4  C   LIG d   1      -0.978  83.439 112.016  0.00  0.00     0.028 C 
ATOM      5  C   LIG d   1      -0.100  84.592 112.491  0.00  0.00    -0.047 C 
ATOM      6  C   LIG d   1       1.351  84.345 112.018  0.00  0.00     0.091 C 
ENDROOT
BRANCH   1   7
ATOM      7  O   LIG d   1       3.013  82.573 111.696  0.00  0.00    -0.368 OA
BRANCH   7   8
ATOM      8  C   LIG d   1       2.722  82.126 110.349  0.00  0.00     0.119 C 
BRANCH   8   9
ATOM      9  C   LIG d   1       3.431  80.773 110.148  0.00  0.00     0.028 C 
ATOM     10  C   LIG d   1       2.525  79.731 109.470  0.00  0.00     0.006 C 
ENDBRANCH   8   9
BRANCH   8  11
ATOM     11  C   LIG d   1       3.334  83.064 109.305  0.00  0.00     0.028 C 
ATOM     12  C   LIG d   1       4.457  83.942 109.880  0.00  0.00     0.006 C 
ENDBRANCH   8  11
ENDBRANCH   7   8
ENDBRANCH   1   7
BRANCH   6  13
ATOM     13  N   LIG d   1       2.292  85.384 112.512  0.00  0.00    -0.311 N 
ATOM     14  C   LIG d   1       2.609  86.476 111.818  0.00  0.00     0.210 C 
ATOM     15  C   LIG d   1       3.615  87.407 112.502  0.00  0.00     0.109 C 
ATOM     16  O   LIG d   1       2.129  86.777 110.715  0.00  0.00    -0.276 OA
ATOM     17  H   LIG d   1       2.705  85.235 113.412  0.00  0.00     0.149 HD
ENDBRANCH   6  13
BRANCH   5  18
ATOM     18  N   LIG d   1      -0.677  85.840 111.960  0.00  0.00     0.381 N 
ATOM     19  H   LIG d   1      -0.461  86.601 112.572  0.00  0.00    -0.090 HD
ATOM     20  H   LIG d   1      -1.677  85.744 111.917  0.00  0.00    -0.090 HD
ATOM     21  H   LIG d   1      -0.315  86.023 111.050  0.00  0.00    -0.090 HD
ENDBRANCH   5  18
BRANCH   3  22
ATOM     22  C   LIG d   1      -1.362  81.139 112.566  0.00  0.00     0.382 C 
ATOM     23  O   LIG d   1      -2.528  81.212 112.109  0.00  0.00    -0.241 OA
ATOM     24  O   LIG d   1      -1.032  80.152 113.251  0.00  0.00    -0.241 OA
ENDBRANCH   3  22
TORSDOF 7
ENDMDL
MODEL 6
REMARK VINA RESULT:      -5.5      2.501      4.375
REMARK  7 active torsions:
REMARK  status: ('A' for Active; 'I' for Inactive)
REMARK    1  A    between atoms: C_2  and  C_3 
REMARK    2  A    between atoms: C_3  and  O_6 
REMARK    3  A    between atoms: C_3  and  C_4 
REMARK    4  A    between atoms: C_7  and  O_6 
REMARK    5  A    between atoms: C_9  and  C_10 
REMARK    6  A    between atoms: N_15  and  C_14 
REMARK    7  A    between atoms: N_20  and  C_19 
REMARK       I    between atoms: C_22  and  N_20 
ROOT
ATOM      1  C   LIG d   1      -0.567  81.144 111.571  0.00  0.00     0.161 C 
ATOM      2  C   LIG d   1      -1.197  79.890 111.527  0.00  0.00     0.016 C 
ATOM      3  C   LIG d   1      -2.141  79.459 112.488  0.00  0.00     0.038 C 
ATOM      4  C   LIG d   1      -2.634  80.319 113.480  0.00  0.00     0.028 C 
ATOM      5  C   LIG d   1      -1.655  81.422 113.866  0.00  0.00    -0.047 C 
ATOM      6  C   LIG d   1      -1.174  82.138 112.583  0.00  0.00     0.091 C 
ENDROOT
BRANCH   1   7
ATOM      7  O   LIG d   1      -0.541  81.725 110.253  0.00  0.00    -0.368 OA
BRANCH   7   8
ATOM      8  C   LIG d   1       0.750  81.759 109.596  0.00  0.00     0.119 C 
BRANCH   8   9
ATOM      9  C   LIG d   1       1.708  80.869 110.412  0.00  0.00     0.028 C 
ATOM     10  C   LIG d   1       2.391  79.796 109.548  0.00  0.00     0.006 C 
ENDBRANCH   8   9
BRANCH   8  11
ATOM     11  C   LIG d   1       1.362  83.162 109.642  0.00  0.00     0.028 C 
ATOM     12  C   LIG d   1       0.320  84.273 109.441  0.00  0.00     0.006 C 
ENDBRANCH   8  11
ENDBRANCH   7   8
ENDBRANCH   1   7
BRANCH   6  13
ATOM     13  N   LIG d   1      -0.149  83.177 112.864  0.00  0.00    -0.311 N 
ATOM     14  C   LIG d   1      -0.443  84.457 113.082  0.00  0.00     0.210 C 
ATOM     15  C   LIG d   1       0.765  85.365 113.333  0.00  0.00     0.109 C 
ATOM     16  O   LIG d   1      -1.593  84.922 113.124  0.00  0.00    -0.276 OA
ATOM     17  H   LIG d   1       0.808  82.881 112.880  0.00  0.00     0.149 HD
ENDBRANCH   6  13
BRANCH   5  18
ATOM     18  N   LIG d   1      -2.348  82.324 114.806  0.00  0.00     0.381 N 
ATOM     19  H   LIG d   1      -1.758  83.101 115.027  0.00  0.00    -0.090 HD
ATOM     20  H   LIG d   1      -2.540  81.823 115.656  0.00  0.00    -0.090 HD
ATOM     21  H   LIG d   1      -3.199  82.648 114.403  0.00  0.00    -0.090 HD
ENDBRANCH   5  18
BRANCH   3  22
ATOM     22  C   LIG d   1      -2.572  78.141 112.485  0.00  0.00     0.382 C 
ATOM     23  O   LIG d   1      -3.711  77.855 112.044  0.00  0.00    -0.241 OA
ATOM     24  O   LIG d   1      -1.853  77.240 112.957  0.00  0.00    -0.241 OA
ENDBRANCH   3  22
TORSDOF 7
ENDMDL
MODEL 7
REMARK VINA RESULT:      -5.3      2.678      5.817
REMARK  7 active torsions:
REMARK  status: ('A' for Active; 'I' for Inactive)
REMARK    1  A    between atoms: C_2  and  C_3 
REMARK    2  A    between atoms: C_3  and  O_6 
REMARK    3  A    between atoms: C_3  and  C_4 
REMARK    4  A    between atoms: C_7  and  O_6 
REMARK    5  A    between atoms: C_9  and  C_10 
REMARK    6  A    between atoms: N_15  and  C_14 
REMARK    7  A    between atoms: N_20  and  C_19 
REMARK       I    between atoms: C_22  and  N_20 
ROOT
ATOM      1  C   LIG d   1       2.424  84.384 112.360  0.00  0.00     0.161 C 
ATOM      2  C   LIG d   1       2.963  85.584 112.853  0.00  0.00     0.016 C 
ATOM      3  C   LIG d   1       2.767  86.838 112.230  0.00  0.00     0.038 C 
ATOM      4  C   LIG d   1       1.888  87.000 111.149  0.00  0.00     0.028 C 
ATOM      5  C   LIG d   1       1.720  85.738 110.311  0.00  0.00    -0.047 C 
ATOM      6  C   LIG d   1       1.371  84.557 111.246  0.00  0.00     0.091 C 
ENDROOT
BRANCH   1   7
ATOM      7  O   LIG d   1       1.880  83.610 113.448  0.00  0.00    -0.368 OA
BRANCH   7   8
ATOM      8  C   LIG d   1       1.214  84.360 114.493  0.00  0.00     0.119 C 
BRANCH   8   9
ATOM      9  C   LIG d   1       1.837  83.935 115.837  0.00  0.00     0.028 C 
ATOM     10  C   LIG d   1       2.234  85.140 116.706  0.00  0.00     0.006 C 
ENDBRANCH   8   9
BRANCH   8  11
ATOM     11  C   LIG d   1      -0.266  83.980 114.594  0.00  0.00     0.028 C 
ATOM     12  C   LIG d   1      -1.174  84.888 113.750  0.00  0.00     0.006 C 
ENDBRANCH   8  11
ENDBRANCH   7   8
ENDBRANCH   1   7
BRANCH   6  13
ATOM     13  N   LIG d   1       1.272  83.266 110.516  0.00  0.00    -0.311 N 
ATOM     14  C   LIG d   1       0.125  82.615 110.330  0.00  0.00     0.210 C 
ATOM     15  C   LIG d   1       0.249  81.292 109.568  0.00  0.00     0.109 C 
ATOM     16  O   LIG d   1      -0.987  83.024 110.695  0.00  0.00    -0.276 OA
ATOM     17  H   LIG d   1       2.123  82.878 110.158  0.00  0.00     0.149 HD
ENDBRANCH   6  13
BRANCH   5  18
ATOM     18  N   LIG d   1       0.675  86.007 109.305  0.00  0.00     0.381 N 
ATOM     19  H   LIG d   1       0.033  86.689 109.657  0.00  0.00    -0.090 HD
ATOM     20  H   LIG d   1       0.167  85.158 109.129  0.00  0.00    -0.090 HD
ATOM     21  H   LIG d   1       1.090  86.335 108.461  0.00  0.00    -0.090 HD
ENDBRANCH   5  18
BRANCH   3  22
ATOM     22  C   LIG d   1       3.487  87.941 112.665  0.00  0.00     0.382 C 
ATOM     23  O   LIG d   1       2.917  88.839 113.330  0.00  0.00    -0.241 OA
ATOM     24  O   LIG d   1       4.688  88.071 112.361  0.00  0.00    -0.241 OA
ENDBRANCH   3  22
TORSDOF 7
ENDMDL
MODEL 8
REMARK VINA RESULT:      -5.3      1.716      4.872
REMARK  7 active torsions:
REMARK  status: ('A' for Active; 'I' for Inactive)
REMARK    1  A    between atoms: C_2  and  C_3 
REMARK    2  A    between atoms: C_3  and  O_6 
REMARK    3  A    between atoms: C_3  and  C_4 
REMARK    4  A    between atoms: C_7  and  O_6 
REMARK    5  A    between atoms: C_9  and  C_10 
REMARK    6  A    between atoms: N_15  and  C_14 
REMARK    7  A    between atoms: N_20  and  C_19 
REMARK       I    between atoms: C_22  and  N_20 
ROOT
ATOM      1  C   LIG d   1       1.352  81.563 112.781  0.00  0.00     0.161 C 
ATOM      2  C   LIG d   1       2.495  82.200 112.269  0.00  0.00     0.016 C 
ATOM      3  C   LIG d   1       2.730  82.383 110.887  0.00  0.00     0.038 C 
ATOM      4  C   LIG d   1       1.760  82.074 109.922  0.00  0.00     0.028 C 
ATOM      5  C   LIG d   1       0.804  80.968 110.357  0.00  0.00    -0.047 C 
ATOM      6  C   LIG d   1       0.231  81.319 111.749  0.00  0.00     0.091 C 
ENDROOT
BRANCH   1   7
ATOM      7  O   LIG d   1       0.844  82.305 113.908  0.00  0.00    -0.368 OA
BRANCH   7   8
ATOM      8  C   LIG d   1       0.230  83.582 113.606  0.00  0.00     0.119 C 
BRANCH   8   9
ATOM      9  C   LIG d   1       0.946  84.651 114.454  0.00  0.00     0.028 C 
ATOM     10  C   LIG d   1       1.500  85.804 113.599  0.00  0.00     0.006 C 
ENDBRANCH   8   9
BRANCH   8  11
ATOM     11  C   LIG d   1      -1.233  83.618 114.058  0.00  0.00     0.028 C 
ATOM     12  C   LIG d   1      -1.545  82.581 115.148  0.00  0.00     0.006 C 
ENDBRANCH   8  11
ENDBRANCH   7   8
ENDBRANCH   1   7
BRANCH   6  13
ATOM     13  N   LIG d   1      -0.649  80.249 112.287  0.00  0.00    -0.311 N 
ATOM     14  C   LIG d   1      -1.978  80.331 112.303  0.00  0.00     0.210 C 
ATOM     15  C   LIG d   1      -2.694  79.125 112.919  0.00  0.00     0.109 C 
ATOM     16  O   LIG d   1      -2.634  81.275 111.836  0.00  0.00    -0.276 OA
ATOM     17  H   LIG d   1      -0.201  79.433 112.657  0.00  0.00     0.149 HD
ENDBRANCH   6  13
BRANCH   5  18
ATOM     18  N   LIG d   1      -0.236  80.843 109.319  0.00  0.00     0.381 N 
ATOM     19  H   LIG d   1      -1.091  80.529 109.732  0.00  0.00    -0.090 HD
ATOM     20  H   LIG d   1       0.058  80.159 108.644  0.00  0.00    -0.090 HD
ATOM     21  H   LIG d   1      -0.378  81.722 108.871  0.00  0.00    -0.090 HD
ENDBRANCH   5  18
BRANCH   3  22
ATOM     22  C   LIG d   1       3.964  82.844 110.455  0.00  0.00     0.382 C 
ATOM     23  O   LIG d   1       4.407  82.494 109.334  0.00  0.00    -0.241 OA
ATOM     24  O   LIG d   1       4.660  83.570 111.190  0.00  0.00    -0.241 OA
ENDBRANCH   3  22
TORSDOF 7
ENDMDL
MODEL 9
REMARK VINA RESULT:      -5.3      2.792      5.403
REMARK  7 active torsions:
REMARK  status: ('A' for Active; 'I' for Inactive)
REMARK    1  A    between atoms: C_2  and  C_3 
REMARK    2  A    between atoms: C_3  and  O_6 
REMARK    3  A    between atoms: C_3  and  C_4 
REMARK    4  A    between atoms: C_7  and  O_6 
REMARK    5  A    between atoms: C_9  and  C_10 
REMARK    6  A    between atoms: N_15  and  C_14 
REMARK    7  A    between atoms: N_20  and  C_19 
REMARK       I    between atoms: C_22  and  N_20 
ROOT
ATOM      1  C   LIG d   1       2.164  84.431 112.145  0.00  0.00     0.161 C 
ATOM      2  C   LIG d   1       2.936  83.952 113.216  0.00  0.00     0.016 C 
ATOM      3  C   LIG d   1       2.419  83.739 114.515  0.00  0.00     0.038 C 
ATOM      4  C   LIG d   1       1.049  83.849 114.794  0.00  0.00     0.028 C 
ATOM      5  C   LIG d   1       0.317  84.815 113.869  0.00  0.00    -0.047 C 
ATOM      6  C   LIG d   1       0.642  84.450 112.402  0.00  0.00     0.091 C 
ENDROOT
BRANCH   1   7
ATOM      7  O   LIG d   1       2.461  83.677 110.953  0.00  0.00    -0.368 OA
BRANCH   7   8
ATOM      8  C   LIG d   1       2.751  82.271 111.144  0.00  0.00     0.119 C 
BRANCH   8   9
ATOM      9  C   LIG d   1       3.900  81.901 110.186  0.00  0.00     0.028 C 
ATOM     10  C   LIG d   1       4.426  83.116 109.404  0.00  0.00     0.006 C 
ENDBRANCH   8   9
BRANCH   8  11
ATOM     11  C   LIG d   1       1.570  81.394 110.718  0.00  0.00     0.028 C 
ATOM     12  C   LIG d   1       0.698  80.952 111.904  0.00  0.00     0.006 C 
ENDBRANCH   8  11
ENDBRANCH   7   8
ENDBRANCH   1   7
BRANCH   6  13
ATOM     13  N   LIG d   1       0.034  85.398 111.434  0.00  0.00    -0.311 N 
ATOM     14  C   LIG d   1      -0.824  85.027 110.484  0.00  0.00     0.210 C 
ATOM     15  C   LIG d   1      -1.316  86.161 109.579  0.00  0.00     0.109 C 
ATOM     16  O   LIG d   1      -1.248  83.873 110.327  0.00  0.00    -0.276 OA
ATOM     17  H   LIG d   1       0.299  86.361 111.510  0.00  0.00     0.149 HD
ENDBRANCH   6  13
BRANCH   5  18
ATOM     18  N   LIG d   1      -1.122  84.728 114.181  0.00  0.00     0.381 N 
ATOM     19  H   LIG d   1      -1.477  85.638 114.397  0.00  0.00    -0.090 HD
ATOM     20  H   LIG d   1      -1.245  84.141 114.987  0.00  0.00    -0.090 HD
ATOM     21  H   LIG d   1      -1.617  84.346 113.405  0.00  0.00    -0.090 HD
ENDBRANCH   5  18
BRANCH   3  22
ATOM     22  C   LIG d   1       3.283  83.452 115.560  0.00  0.00     0.382 C 
ATOM     23  O   LIG d   1       2.838  82.956 116.623  0.00  0.00    -0.241 OA
ATOM     24  O   LIG d   1       4.496  83.723 115.470  0.00  0.00    -0.241 OA
ENDBRANCH   3  22
TORSDOF 7
ENDMDL
