MODEL 1
REMARK VINA RESULT:      -6.4      0.000      0.000
REMARK  7 active torsions:
REMARK  status: ('A' for Active; 'I' for Inactive)
REMARK    1  A    between atoms: C_2  and  C_3 
REMARK    2  A    between atoms: C_3  and  O_6 
REMARK    3  A    between atoms: C_3  and  C_4 
REMARK    4  A    between atoms: C_7  and  O_6 
REMARK    5  A    between atoms: C_9  and  C_10 
REMARK    6  A    between atoms: N_15  and  C_14 
REMARK    7  A    between atoms: N_20  and  C_19 
REMARK       I    between atoms: C_22  and  N_20 
ROOT
ATOM      1  C   LIG d   1       0.279  82.568 111.109  0.00  0.00     0.161 C 
ATOM      2  C   LIG d   1      -0.834  82.266 111.911  0.00  0.00     0.016 C 
ATOM      3  C   LIG d   1      -1.349  80.959 112.067  0.00  0.00     0.038 C 
ATOM      4  C   LIG d   1      -0.690  79.835 111.547  0.00  0.00     0.028 C 
ATOM      5  C   LIG d   1       0.150  80.144 110.312  0.00  0.00    -0.047 C 
ATOM      6  C   LIG d   1       1.078  81.341 110.623  0.00  0.00     0.091 C 
ENDROOT
BRANCH   1   7
ATOM      7  O   LIG d   1       1.146  83.488 111.801  0.00  0.00    -0.368 OA
BRANCH   7   8
ATOM      8  C   LIG d   1       1.162  84.848 111.301  0.00  0.00     0.119 C 
BRANCH   8   9
ATOM      9  C   LIG d   1       0.228  84.902 110.077  0.00  0.00     0.028 C 
ATOM     10  C   LIG d   1      -0.747  86.090 110.135  0.00  0.00     0.006 C 
ENDBRANCH   8   9
BRANCH   8  11
ATOM     11  C   LIG d   1       2.548  85.229 110.770  0.00  0.00     0.028 C 
ATOM     12  C   LIG d   1       3.689  84.726 111.669  0.00  0.00     0.006 C 
ENDBRANCH   8  11
ENDBRANCH   7   8
ENDBRANCH   1   7
BRANCH   6  13
ATOM     13  N   LIG d   1       1.874  81.762 109.441  0.00  0.00    -0.311 N 
ATOM     14  C   LIG d   1       3.206  81.797 109.429  0.00  0.00     0.210 C 
ATOM     15  C   LIG d   1       3.828  82.281 108.115  0.00  0.00     0.109 C 
ATOM     16  O   LIG d   1       3.931  81.443 110.370  0.00  0.00    -0.276 OA
ATOM     17  H   LIG d   1       1.366  82.036 108.622  0.00  0.00     0.149 HD
ENDBRANCH   6  13
BRANCH   5  18
ATOM     18  N   LIG d   1       0.889  78.917 109.958  0.00  0.00     0.381 N 
ATOM     19  H   LIG d   1       0.626  78.173 110.574  0.00  0.00    -0.090 HD
ATOM     20  H   LIG d   1       1.873  79.086 110.070  0.00  0.00    -0.090 HD
ATOM     21  H   LIG d   1       0.694  78.662 109.015  0.00  0.00    -0.090 HD
ENDBRANCH   5  18
BRANCH   3  22
ATOM     22  C   LIG d   1      -2.559  80.770 112.717  0.00  0.00     0.382 C 
ATOM     23  O   LIG d   1      -2.774  79.705 113.345  0.00  0.00    -0.241 OA
ATOM     24  O   LIG d   1      -3.455  81.632 112.647  0.00  0.00    -0.241 OA
ENDBRANCH   3  22
TORSDOF 7
ENDMDL
MODEL 2
REMARK VINA RESULT:      -6.4      2.538      4.395
REMARK  7 active torsions:
REMARK  status: ('A' for Active; 'I' for Inactive)
REMARK    1  A    between atoms: C_2  and  C_3 
REMARK    2  A    between atoms: C_3  and  O_6 
REMARK    3  A    between atoms: C_3  and  C_4 
REMARK    4  A    between atoms: C_7  and  O_6 
REMARK    5  A    between atoms: C_9  and  C_10 
REMARK    6  A    between atoms: N_15  and  C_14 
REMARK    7  A    between atoms: N_20  and  C_19 
REMARK       I    between atoms: C_22  and  N_20 
ROOT
ATOM      1  C   LIG d   1       1.225  83.664 109.421  0.00  0.00     0.161 C 
ATOM      2  C   LIG d   1       0.894  84.988 109.755  0.00  0.00     0.016 C 
ATOM      3  C   LIG d   1       0.267  85.350 110.970  0.00  0.00     0.038 C 
ATOM      4  C   LIG d   1       0.065  84.424 112.005  0.00  0.00     0.028 C 
ATOM      5  C   LIG d   1      -0.076  82.987 111.513  0.00  0.00    -0.047 C 
ATOM      6  C   LIG d   1       1.113  82.656 110.583  0.00  0.00     0.091 C 
ENDROOT
BRANCH   1   7
ATOM      7  O   LIG d   1       2.546  83.622 108.846  0.00  0.00    -0.368 OA
BRANCH   7   8
ATOM      8  C   LIG d   1       3.622  83.257 109.746  0.00  0.00     0.119 C 
BRANCH   8   9
ATOM      9  C   LIG d   1       4.202  84.561 110.327  0.00  0.00     0.028 C 
ATOM     10  C   LIG d   1       4.150  84.593 111.864  0.00  0.00     0.006 C 
ENDBRANCH   8   9
BRANCH   8  11
ATOM     11  C   LIG d   1       4.780  82.598 108.992  0.00  0.00     0.028 C 
ATOM     12  C   LIG d   1       4.420  81.208 108.443  0.00  0.00     0.006 C 
ENDBRANCH   8  11
ENDBRANCH   7   8
ENDBRANCH   1   7
BRANCH   6  13
ATOM     13  N   LIG d   1       1.008  81.297 109.991  0.00  0.00    -0.311 N 
ATOM     14  C   LIG d   1       1.627  80.229 110.492  0.00  0.00     0.210 C 
ATOM     15  C   LIG d   1       1.401  78.927 109.716  0.00  0.00     0.109 C 
ATOM     16  O   LIG d   1       2.316  80.230 111.523  0.00  0.00    -0.276 OA
ATOM     17  H   LIG d   1       0.444  81.199 109.170  0.00  0.00     0.149 HD
ENDBRANCH   6  13
BRANCH   5  18
ATOM     18  N   LIG d   1      -0.144  82.114 112.700  0.00  0.00     0.381 N 
ATOM     19  H   LIG d   1       0.559  82.384 113.359  0.00  0.00    -0.090 HD
ATOM     20  H   LIG d   1       0.036  81.167 112.417  0.00  0.00    -0.090 HD
ATOM     21  H   LIG d   1      -1.045  82.178 113.120  0.00  0.00    -0.090 HD
ENDBRANCH   5  18
BRANCH   3  22
ATOM     22  C   LIG d   1      -0.200  86.643 111.143  0.00  0.00     0.382 C 
ATOM     23  O   LIG d   1       0.594  87.560 111.464  0.00  0.00    -0.241 OA
ATOM     24  O   LIG d   1      -1.414  86.897 111.026  0.00  0.00    -0.241 OA
ENDBRANCH   3  22
TORSDOF 7
ENDMDL
MODEL 3
REMARK VINA RESULT:      -6.2      2.306      5.412
REMARK  7 active torsions:
REMARK  status: ('A' for Active; 'I' for Inactive)
REMARK    1  A    between atoms: C_2  and  C_3 
REMARK    2  A    between atoms: C_3  and  O_6 
REMARK    3  A    between atoms: C_3  and  C_4 
REMARK    4  A    between atoms: C_7  and  O_6 
REMARK    5  A    between atoms: C_9  and  C_10 
REMARK    6  A    between atoms: N_15  and  C_14 
REMARK    7  A    between atoms: N_20  and  C_19 
REMARK       I    between atoms: C_22  and  N_20 
ROOT
ATOM      1  C   LIG d   1       1.129  82.886 109.800  0.00  0.00     0.161 C 
ATOM      2  C   LIG d   1       1.746  84.147 109.865  0.00  0.00     0.016 C 
ATOM      3  C   LIG d   1       1.993  84.830 111.078  0.00  0.00     0.038 C 
ATOM      4  C   LIG d   1       1.776  84.228 112.326  0.00  0.00     0.028 C 
ATOM      5  C   LIG d   1       0.687  83.161 112.302  0.00  0.00    -0.047 C 
ATOM      6  C   LIG d   1       0.985  82.166 111.157  0.00  0.00     0.091 C 
ENDROOT
BRANCH   1   7
ATOM      7  O   LIG d   1       1.828  82.048 108.859  0.00  0.00    -0.368 OA
BRANCH   7   8
ATOM      8  C   LIG d   1       3.101  81.517 109.302  0.00  0.00     0.119 C 
BRANCH   8   9
ATOM      9  C   LIG d   1       4.147  81.863 108.225  0.00  0.00     0.028 C 
ATOM     10  C   LIG d   1       5.131  82.949 108.691  0.00  0.00     0.006 C 
ENDBRANCH   8   9
BRANCH   8  11
ATOM     11  C   LIG d   1       3.075  79.987 109.365  0.00  0.00     0.028 C 
ATOM     12  C   LIG d   1       2.060  79.367 108.391  0.00  0.00     0.006 C 
ENDBRANCH   8  11
ENDBRANCH   7   8
ENDBRANCH   1   7
BRANCH   6  13
ATOM     13  N   LIG d   1      -0.077  81.136 111.010  0.00  0.00    -0.311 N 
ATOM     14  C   LIG d   1       0.011  79.913 111.530  0.00  0.00     0.210 C 
ATOM     15  C   LIG d   1      -1.186  79.002 111.243  0.00  0.00     0.109 C 
ATOM     16  O   LIG d   1       0.951  79.508 112.229  0.00  0.00    -0.276 OA
ATOM     17  H   LIG d   1      -0.889  81.391 110.483  0.00  0.00     0.149 HD
ENDBRANCH   6  13
BRANCH   5  18
ATOM     18  N   LIG d   1       0.660  82.521 113.631  0.00  0.00     0.381 N 
ATOM     19  H   LIG d   1       1.373  82.917 114.212  0.00  0.00    -0.090 HD
ATOM     20  H   LIG d   1       0.849  81.540 113.524  0.00  0.00    -0.090 HD
ATOM     21  H   LIG d   1      -0.233  82.651 114.054  0.00  0.00    -0.090 HD
ENDBRANCH   5  18
BRANCH   3  22
ATOM     22  C   LIG d   1       2.427  86.147 111.048  0.00  0.00     0.382 C 
ATOM     23  O   LIG d   1       1.661  87.050 110.636  0.00  0.00    -0.241 OA
ATOM     24  O   LIG d   1       3.591  86.436 111.386  0.00  0.00    -0.241 OA
ENDBRANCH   3  22
TORSDOF 7
ENDMDL
MODEL 4
REMARK VINA RESULT:      -5.9      2.485      4.858
REMARK  7 active torsions:
REMARK  status: ('A' for Active; 'I' for Inactive)
REMARK    1  A    between atoms: C_2  and  C_3 
REMARK    2  A    between atoms: C_3  and  O_6 
REMARK    3  A    between atoms: C_3  and  C_4 
REMARK    4  A    between atoms: C_7  and  O_6 
REMARK    5  A    between atoms: C_9  and  C_10 
REMARK    6  A    between atoms: N_15  and  C_14 
REMARK    7  A    between atoms: N_20  and  C_19 
REMARK       I    between atoms: C_22  and  N_20 
ROOT
ATOM      1  C   LIG d   1       1.582  82.946 111.230  0.00  0.00     0.161 C 
ATOM      2  C   LIG d   1       1.318  84.295 111.523  0.00  0.00     0.016 C 
ATOM      3  C   LIG d   1       1.089  85.275 110.530  0.00  0.00     0.038 C 
ATOM      4  C   LIG d   1       0.958  84.941 109.174  0.00  0.00     0.028 C 
ATOM      5  C   LIG d   1       1.718  83.677 108.786  0.00  0.00    -0.047 C 
ATOM      6  C   LIG d   1       1.334  82.542 109.762  0.00  0.00     0.091 C 
ENDROOT
BRANCH   1   7
ATOM      7  O   LIG d   1       0.829  82.097 112.118  0.00  0.00    -0.368 OA
BRANCH   7   8
ATOM      8  C   LIG d   1       1.589  81.102 112.847  0.00  0.00     0.119 C 
BRANCH   8   9
ATOM      9  C   LIG d   1       0.830  79.765 112.734  0.00  0.00     0.028 C 
ATOM     10  C   LIG d   1      -0.451  79.887 111.893  0.00  0.00     0.006 C 
ENDBRANCH   8   9
BRANCH   8  11
ATOM     11  C   LIG d   1       1.631  81.419 114.344  0.00  0.00     0.028 C 
ATOM     12  C   LIG d   1       2.626  82.539 114.689  0.00  0.00     0.006 C 
ENDBRANCH   8  11
ENDBRANCH   7   8
ENDBRANCH   1   7
BRANCH   6  13
ATOM     13  N   LIG d   1       2.096  81.292 109.505  0.00  0.00    -0.311 N 
ATOM     14  C   LIG d   1       1.615  80.273 108.795  0.00  0.00     0.210 C 
ATOM     15  C   LIG d   1       2.556  79.072 108.667  0.00  0.00     0.109 C 
ATOM     16  O   LIG d   1       0.510  80.263 108.231  0.00  0.00    -0.276 OA
ATOM     17  H   LIG d   1       3.014  81.228 109.900  0.00  0.00     0.149 HD
ENDBRANCH   6  13
BRANCH   5  18
ATOM     18  N   LIG d   1       1.384  83.370 107.382  0.00  0.00     0.381 N 
ATOM     19  H   LIG d   1       1.694  84.114 106.790  0.00  0.00    -0.090 HD
ATOM     20  H   LIG d   1       0.386  83.292 107.295  0.00  0.00    -0.090 HD
ATOM     21  H   LIG d   1       1.816  82.515 107.108  0.00  0.00    -0.090 HD
ENDBRANCH   5  18
BRANCH   3  22
ATOM     22  C   LIG d   1       1.027  86.613 110.888  0.00  0.00     0.382 C 
ATOM     23  O   LIG d   1       2.085  87.266 111.060  0.00  0.00    -0.241 OA
ATOM     24  O   LIG d   1      -0.072  87.165 111.084  0.00  0.00    -0.241 OA
ENDBRANCH   3  22
TORSDOF 7
ENDMDL
MODEL 5
REMARK VINA RESULT:      -5.9      2.443      4.367
REMARK  7 active torsions:
REMARK  status: ('A' for Active; 'I' for Inactive)
REMARK    1  A    between atoms: C_2  and  C_3 
REMARK    2  A    between atoms: C_3  and  O_6 
REMARK    3  A    between atoms: C_3  and  C_4 
REMARK    4  A    between atoms: C_7  and  O_6 
REMARK    5  A    between atoms: C_9  and  C_10 
REMARK    6  A    between atoms: N_15  and  C_14 
REMARK    7  A    between atoms: N_20  and  C_19 
REMARK       I    between atoms: C_22  and  N_20 
ROOT
ATOM      1  C   LIG d   1       2.261  82.617 111.987  0.00  0.00     0.161 C 
ATOM      2  C   LIG d   1       1.102  81.832 111.870  0.00  0.00     0.016 C 
ATOM      3  C   LIG d   1      -0.207  82.365 111.920  0.00  0.00     0.038 C 
ATOM      4  C   LIG d   1      -0.444  83.748 111.939  0.00  0.00     0.028 C 
ATOM      5  C   LIG d   1       0.692  84.549 112.566  0.00  0.00    -0.047 C 
ATOM      6  C   LIG d   1       2.024  84.139 111.897  0.00  0.00     0.091 C 
ENDROOT
BRANCH   1   7
ATOM      7  O   LIG d   1       3.233  82.202 111.006  0.00  0.00    -0.368 OA
BRANCH   7   8
ATOM      8  C   LIG d   1       2.701  81.714 109.750  0.00  0.00     0.119 C 
BRANCH   8   9
ATOM      9  C   LIG d   1       3.200  80.267 109.567  0.00  0.00     0.028 C 
ATOM     10  C   LIG d   1       2.136  79.356 108.931  0.00  0.00     0.006 C 
ENDBRANCH   8   9
BRANCH   8  11
ATOM     11  C   LIG d   1       3.274  82.493 108.562  0.00  0.00     0.028 C 
ATOM     12  C   LIG d   1       4.808  82.585 108.594  0.00  0.00     0.006 C 
ENDBRANCH   8  11
ENDBRANCH   7   8
ENDBRANCH   1   7
BRANCH   6  13
ATOM     13  N   LIG d   1       3.198  84.814 112.509  0.00  0.00    -0.311 N 
ATOM     14  C   LIG d   1       3.613  86.028 112.153  0.00  0.00     0.210 C 
ATOM     15  C   LIG d   1       4.855  86.531 112.896  0.00  0.00     0.109 C 
ATOM     16  O   LIG d   1       3.052  86.750 111.315  0.00  0.00    -0.276 OA
ATOM     17  H   LIG d   1       3.693  84.312 113.220  0.00  0.00     0.149 HD
ENDBRANCH   6  13
BRANCH   5  18
ATOM     18  N   LIG d   1       0.376  85.979 112.396  0.00  0.00     0.381 N 
ATOM     19  H   LIG d   1      -0.590  86.139 112.600  0.00  0.00    -0.090 HD
ATOM     20  H   LIG d   1       0.543  86.237 111.439  0.00  0.00    -0.090 HD
ATOM     21  H   LIG d   1       0.946  86.529 113.000  0.00  0.00    -0.090 HD
ENDBRANCH   5  18
BRANCH   3  22
ATOM     22  C   LIG d   1      -1.295  81.509 111.992  0.00  0.00     0.382 C 
ATOM     23  O   LIG d   1      -1.183  80.319 111.609  0.00  0.00    -0.241 OA
ATOM     24  O   LIG d   1      -2.399  81.923 112.392  0.00  0.00    -0.241 OA
ENDBRANCH   3  22
TORSDOF 7
ENDMDL
MODEL 6
REMARK VINA RESULT:      -5.7      2.302      5.026
REMARK  7 active torsions:
REMARK  status: ('A' for Active; 'I' for Inactive)
REMARK    1  A    between atoms: C_2  and  C_3 
REMARK    2  A    between atoms: C_3  and  O_6 
REMARK    3  A    between atoms: C_3  and  C_4 
REMARK    4  A    between atoms: C_7  and  O_6 
REMARK    5  A    between atoms: C_9  and  C_10 
REMARK    6  A    between atoms: N_15  and  C_14 
REMARK    7  A    between atoms: N_20  and  C_19 
REMARK       I    between atoms: C_22  and  N_20 
ROOT
ATOM      1  C   LIG d   1       0.352  82.712 110.933  0.00  0.00     0.161 C 
ATOM      2  C   LIG d   1      -0.067  84.017 111.242  0.00  0.00     0.016 C 
ATOM      3  C   LIG d   1       0.165  85.129 110.399  0.00  0.00     0.038 C 
ATOM      4  C   LIG d   1       0.702  84.984 109.112  0.00  0.00     0.028 C 
ATOM      5  C   LIG d   1       1.599  83.759 108.963  0.00  0.00    -0.047 C 
ATOM      6  C   LIG d   1       0.840  82.516 109.482  0.00  0.00     0.091 C 
ENDROOT
BRANCH   1   7
ATOM      7  O   LIG d   1      -0.701  81.776 111.237  0.00  0.00    -0.368 OA
BRANCH   7   8
ATOM      8  C   LIG d   1      -0.445  80.863 112.332  0.00  0.00     0.119 C 
BRANCH   8   9
ATOM      9  C   LIG d   1       0.946  81.202 112.903  0.00  0.00     0.028 C 
ATOM     10  C   LIG d   1       1.863  79.970 112.985  0.00  0.00     0.006 C 
ENDBRANCH   8   9
BRANCH   8  11
ATOM     11  C   LIG d   1      -0.339  79.417 111.838  0.00  0.00     0.028 C 
ATOM     12  C   LIG d   1      -1.627  78.922 111.162  0.00  0.00     0.006 C 
ENDBRANCH   8  11
ENDBRANCH   7   8
ENDBRANCH   1   7
BRANCH   6  13
ATOM     13  N   LIG d   1       1.676  81.288 109.451  0.00  0.00    -0.311 N 
ATOM     14  C   LIG d   1       1.359  80.202 108.748  0.00  0.00     0.210 C 
ATOM     15  C   LIG d   1       2.349  79.039 108.872  0.00  0.00     0.109 C 
ATOM     16  O   LIG d   1       0.368  80.103 108.008  0.00  0.00    -0.276 OA
ATOM     17  H   LIG d   1       2.515  81.293 109.999  0.00  0.00     0.149 HD
ENDBRANCH   6  13
BRANCH   5  18
ATOM     18  N   LIG d   1       1.978  83.653 107.542  0.00  0.00     0.381 N 
ATOM     19  H   LIG d   1       2.504  84.460 107.271  0.00  0.00    -0.090 HD
ATOM     20  H   LIG d   1       1.143  83.620 106.984  0.00  0.00    -0.090 HD
ATOM     21  H   LIG d   1       2.518  82.830 107.393  0.00  0.00    -0.090 HD
ENDBRANCH   5  18
BRANCH   3  22
ATOM     22  C   LIG d   1      -0.105  86.408 110.860  0.00  0.00     0.382 C 
ATOM     23  O   LIG d   1       0.839  87.175 111.170  0.00  0.00    -0.241 OA
ATOM     24  O   LIG d   1      -1.281  86.790 111.012  0.00  0.00    -0.241 OA
ENDBRANCH   3  22
TORSDOF 7
ENDMDL
MODEL 7
REMARK VINA RESULT:      -5.6      2.574      4.448
REMARK  7 active torsions:
REMARK  status: ('A' for Active; 'I' for Inactive)
REMARK    1  A    between atoms: C_2  and  C_3 
REMARK    2  A    between atoms: C_3  and  O_6 
REMARK    3  A    between atoms: C_3  and  C_4 
REMARK    4  A    between atoms: C_7  and  O_6 
REMARK    5  A    between atoms: C_9  and  C_10 
REMARK    6  A    between atoms: N_15  and  C_14 
REMARK    7  A    between atoms: N_20  and  C_19 
REMARK       I    between atoms: C_22  and  N_20 
ROOT
ATOM      1  C   LIG d   1       1.862  82.436 110.476  0.00  0.00     0.161 C 
ATOM      2  C   LIG d   1       2.015  81.488 109.450  0.00  0.00     0.016 C 
ATOM      3  C   LIG d   1       1.892  80.094 109.654  0.00  0.00     0.038 C 
ATOM      4  C   LIG d   1       1.455  79.559 110.874  0.00  0.00     0.028 C 
ATOM      5  C   LIG d   1       1.778  80.443 112.074  0.00  0.00    -0.047 C 
ATOM      6  C   LIG d   1       1.276  81.877 111.790  0.00  0.00     0.091 C 
ENDROOT
BRANCH   1   7
ATOM      7  O   LIG d   1       1.068  83.542 110.004  0.00  0.00    -0.368 OA
BRANCH   7   8
ATOM      8  C   LIG d   1       1.798  84.738 109.634  0.00  0.00     0.119 C 
BRANCH   8   9
ATOM      9  C   LIG d   1       3.167  84.682 110.341  0.00  0.00     0.028 C 
ATOM     10  C   LIG d   1       3.333  85.795 111.389  0.00  0.00     0.006 C 
ENDBRANCH   8   9
BRANCH   8  11
ATOM     11  C   LIG d   1       1.115  85.998 110.175  0.00  0.00     0.028 C 
ATOM     12  C   LIG d   1      -0.414  85.955 110.028  0.00  0.00     0.006 C 
ENDBRANCH   8  11
ENDBRANCH   7   8
ENDBRANCH   1   7
BRANCH   6  13
ATOM     13  N   LIG d   1       1.626  82.827 112.878  0.00  0.00    -0.311 N 
ATOM     14  C   LIG d   1       0.782  83.741 113.353  0.00  0.00     0.210 C 
ATOM     15  C   LIG d   1       1.352  84.633 114.461  0.00  0.00     0.109 C 
ATOM     16  O   LIG d   1      -0.394  83.877 112.984  0.00  0.00    -0.276 OA
ATOM     17  H   LIG d   1       2.551  82.765 113.257  0.00  0.00     0.149 HD
ENDBRANCH   6  13
BRANCH   5  18
ATOM     18  N   LIG d   1       1.147  79.834 113.260  0.00  0.00     0.381 N 
ATOM     19  H   LIG d   1       1.838  79.358 113.804  0.00  0.00    -0.090 HD
ATOM     20  H   LIG d   1       0.466  79.161 112.956  0.00  0.00    -0.090 HD
ATOM     21  H   LIG d   1       0.706  80.537 113.811  0.00  0.00    -0.090 HD
ENDBRANCH   5  18
BRANCH   3  22
ATOM     22  C   LIG d   1       2.247  79.218 108.639  0.00  0.00     0.382 C 
ATOM     23  O   LIG d   1       2.983  78.233 108.890  0.00  0.00    -0.241 OA
ATOM     24  O   LIG d   1       1.876  79.424 107.468  0.00  0.00    -0.241 OA
ENDBRANCH   3  22
TORSDOF 7
ENDMDL
MODEL 8
REMARK VINA RESULT:      -5.4     23.748     26.662
REMARK  7 active torsions:
REMARK  status: ('A' for Active; 'I' for Inactive)
REMARK    1  A    between atoms: C_2  and  C_3 
REMARK    2  A    between atoms: C_3  and  O_6 
REMARK    3  A    between atoms: C_3  and  C_4 
REMARK    4  A    between atoms: C_7  and  O_6 
REMARK    5  A    between atoms: C_9  and  C_10 
REMARK    6  A    between atoms: N_15  and  C_14 
REMARK    7  A    between atoms: N_20  and  C_19 
REMARK       I    between atoms: C_22  and  N_20 
ROOT
ATOM      1  C   LIG d   1     -25.722  85.556 112.898  0.00  0.00     0.161 C 
ATOM      2  C   LIG d   1     -24.647  86.420 113.168  0.00  0.00     0.016 C 
ATOM      3  C   LIG d   1     -23.361  85.968 113.543  0.00  0.00     0.038 C 
ATOM      4  C   LIG d   1     -23.019  84.608 113.527  0.00  0.00     0.028 C 
ATOM      5  C   LIG d   1     -24.209  83.681 113.751  0.00  0.00    -0.047 C 
ATOM      6  C   LIG d   1     -25.338  84.067 112.768  0.00  0.00     0.091 C 
ENDROOT
BRANCH   1   7
ATOM      7  O   LIG d   1     -26.421  85.998 111.718  0.00  0.00    -0.368 OA
BRANCH   7   8
ATOM      8  C   LIG d   1     -27.299  87.138 111.887  0.00  0.00     0.119 C 
BRANCH   8   9
ATOM      9  C   LIG d   1     -28.692  86.731 111.369  0.00  0.00     0.028 C 
ATOM     10  C   LIG d   1     -28.661  85.413 110.577  0.00  0.00     0.006 C 
ENDBRANCH   8   9
BRANCH   8  11
ATOM     11  C   LIG d   1     -26.865  88.311 111.003  0.00  0.00     0.028 C 
ATOM     12  C   LIG d   1     -26.002  87.871 109.810  0.00  0.00     0.006 C 
ENDBRANCH   8  11
ENDBRANCH   7   8
ENDBRANCH   1   7
BRANCH   6  13
ATOM     13  N   LIG d   1     -26.571  83.264 112.977  0.00  0.00    -0.311 N 
ATOM     14  C   LIG d   1     -27.062  82.425 112.068  0.00  0.00     0.210 C 
ATOM     15  C   LIG d   1     -28.354  81.711 112.478  0.00  0.00     0.109 C 
ATOM     16  O   LIG d   1     -26.533  82.179 110.973  0.00  0.00    -0.276 OA
ATOM     17  H   LIG d   1     -27.047  83.379 113.851  0.00  0.00     0.149 HD
ENDBRANCH   6  13
BRANCH   5  18
ATOM     18  N   LIG d   1     -23.735  82.296 113.573  0.00  0.00     0.381 N 
ATOM     19  H   LIG d   1     -24.243  81.857 112.831  0.00  0.00    -0.090 HD
ATOM     20  H   LIG d   1     -23.907  81.782 114.419  0.00  0.00    -0.090 HD
ATOM     21  H   LIG d   1     -22.761  82.293 113.365  0.00  0.00    -0.090 HD
ENDBRANCH   5  18
BRANCH   3  22
ATOM     22  C   LIG d   1     -22.412  86.881 113.977  0.00  0.00     0.382 C 
ATOM     23  O   LIG d   1     -22.767  87.889 114.635  0.00  0.00    -0.241 OA
ATOM     24  O   LIG d   1     -21.211  86.733 113.683  0.00  0.00    -0.241 OA
ENDBRANCH   3  22
TORSDOF 7
ENDMDL
MODEL 9
REMARK VINA RESULT:      -5.4      1.849      2.116
REMARK  7 active torsions:
REMARK  status: ('A' for Active; 'I' for Inactive)
REMARK    1  A    between atoms: C_2  and  C_3 
REMARK    2  A    between atoms: C_3  and  O_6 
REMARK    3  A    between atoms: C_3  and  C_4 
REMARK    4  A    between atoms: C_7  and  O_6 
REMARK    5  A    between atoms: C_9  and  C_10 
REMARK    6  A    between atoms: N_15  and  C_14 
REMARK    7  A    between atoms: N_20  and  C_19 
REMARK       I    between atoms: C_22  and  N_20 
ROOT
ATOM      1  C   LIG d   1       0.100  82.377 111.215  0.00  0.00     0.161 C 
ATOM      2  C   LIG d   1      -0.231  81.497 112.259  0.00  0.00     0.016 C 
ATOM      3  C   LIG d   1       0.088  80.120 112.247  0.00  0.00     0.038 C 
ATOM      4  C   LIG d   1       0.899  79.556 111.250  0.00  0.00     0.028 C 
ATOM      5  C   LIG d   1       0.829  80.298 109.920  0.00  0.00    -0.047 C 
ATOM      6  C   LIG d   1       1.081  81.802 110.172  0.00  0.00     0.091 C 
ENDROOT
BRANCH   1   7
ATOM      7  O   LIG d   1       0.611  83.610 111.758  0.00  0.00    -0.368 OA
BRANCH   7   8
ATOM      8  C   LIG d   1      -0.347  84.685 111.911  0.00  0.00     0.119 C 
BRANCH   8   9
ATOM      9  C   LIG d   1      -0.488  85.377 110.541  0.00  0.00     0.028 C 
ATOM     10  C   LIG d   1       0.786  86.135 110.132  0.00  0.00     0.006 C 
ENDBRANCH   8   9
BRANCH   8  11
ATOM     11  C   LIG d   1       0.177  85.768 112.860  0.00  0.00     0.028 C 
ATOM     12  C   LIG d   1       1.165  85.220 113.901  0.00  0.00     0.006 C 
ENDBRANCH   8  11
ENDBRANCH   7   8
ENDBRANCH   1   7
BRANCH   6  13
ATOM     13  N   LIG d   1       0.947  82.614 108.934  0.00  0.00    -0.311 N 
ATOM     14  C   LIG d   1       1.985  82.989 108.188  0.00  0.00     0.210 C 
ATOM     15  C   LIG d   1       1.628  83.839 106.964  0.00  0.00     0.109 C 
ATOM     16  O   LIG d   1       3.164  82.673 108.406  0.00  0.00    -0.276 OA
ATOM     17  H   LIG d   1       0.023  82.889 108.666  0.00  0.00     0.149 HD
ENDBRANCH   6  13
BRANCH   5  18
ATOM     18  N   LIG d   1       1.824  79.688 109.017  0.00  0.00     0.381 N 
ATOM     19  H   LIG d   1       1.358  79.244 108.252  0.00  0.00    -0.090 HD
ATOM     20  H   LIG d   1       2.337  78.989 109.524  0.00  0.00    -0.090 HD
ATOM     21  H   LIG d   1       2.447  80.386 108.676  0.00  0.00    -0.090 HD
ENDBRANCH   5  18
BRANCH   3  22
ATOM     22  C   LIG d   1      -0.439  79.284 113.219  0.00  0.00     0.382 C 
ATOM     23  O   LIG d   1       0.030  79.300 114.382  0.00  0.00    -0.241 OA
ATOM     24  O   LIG d   1      -1.349  78.481 112.936  0.00  0.00    -0.241 OA
ENDBRANCH   3  22
TORSDOF 7
ENDMDL
