MODEL 1
REMARK VINA RESULT:      -6.9      0.000      0.000
REMARK  7 active torsions:
REMARK  status: ('A' for Active; 'I' for Inactive)
REMARK    1  A    between atoms: C_2  and  C_3 
REMARK    2  A    between atoms: C_3  and  O_6 
REMARK    3  A    between atoms: C_3  and  C_4 
REMARK    4  A    between atoms: C_7  and  O_6 
REMARK    5  A    between atoms: C_9  and  C_10 
REMARK    6  A    between atoms: N_15  and  C_14 
REMARK    7  A    between atoms: N_20  and  C_19 
REMARK       I    between atoms: C_22  and  N_20 
ROOT
ATOM      1  C   LIG d   1       0.765  82.459 111.352  0.00  0.00     0.161 C 
ATOM      2  C   LIG d   1      -0.404  82.290 112.113  0.00  0.00     0.016 C 
ATOM      3  C   LIG d   1      -0.975  81.027 112.390  0.00  0.00     0.038 C 
ATOM      4  C   LIG d   1      -0.328  79.829 112.050  0.00  0.00     0.028 C 
ATOM      5  C   LIG d   1       0.595  79.961 110.843  0.00  0.00    -0.047 C 
ATOM      6  C   LIG d   1       1.546  81.159 111.067  0.00  0.00     0.091 C 
ENDROOT
BRANCH   1   7
ATOM      7  O   LIG d   1       1.623  83.430 111.984  0.00  0.00    -0.368 OA
BRANCH   7   8
ATOM      8  C   LIG d   1       1.750  84.705 111.308  0.00  0.00     0.119 C 
BRANCH   8   9
ATOM      9  C   LIG d   1       1.189  84.531 109.883  0.00  0.00     0.028 C 
ATOM     10  C   LIG d   1       0.490  85.800 109.368  0.00  0.00     0.006 C 
ENDBRANCH   8   9
BRANCH   8  11
ATOM     11  C   LIG d   1       3.220  85.093 111.120  0.00  0.00     0.028 C 
ATOM     12  C   LIG d   1       3.536  86.501 111.646  0.00  0.00     0.006 C 
ENDBRANCH   8  11
ENDBRANCH   7   8
ENDBRANCH   1   7
BRANCH   6  13
ATOM     13  N   LIG d   1       2.426  81.411 109.897  0.00  0.00    -0.311 N 
ATOM     14  C   LIG d   1       3.742  81.589 109.994  0.00  0.00     0.210 C 
ATOM     15  C   LIG d   1       4.459  81.855 108.666  0.00  0.00     0.109 C 
ATOM     16  O   LIG d   1       4.389  81.521 111.050  0.00  0.00    -0.276 OA
ATOM     17  H   LIG d   1       1.988  81.451 108.997  0.00  0.00     0.149 HD
ENDBRANCH   6  13
BRANCH   5  18
ATOM     18  N   LIG d   1       1.307  78.679 110.685  0.00  0.00     0.381 N 
ATOM     19  H   LIG d   1       0.863  78.130 109.976  0.00  0.00    -0.090 HD
ATOM     20  H   LIG d   1       1.262  78.173 111.552  0.00  0.00    -0.090 HD
ATOM     21  H   LIG d   1       2.258  78.846 110.439  0.00  0.00    -0.090 HD
ENDBRANCH   5  18
BRANCH   3  22
ATOM     22  C   LIG d   1      -2.228  80.954 112.980  0.00  0.00     0.382 C 
ATOM     23  O   LIG d   1      -3.157  81.690 112.570  0.00  0.00    -0.241 OA
ATOM     24  O   LIG d   1      -2.428  80.193 113.946  0.00  0.00    -0.241 OA
ENDBRANCH   3  22
TORSDOF 7
ENDMDL
MODEL 2
REMARK VINA RESULT:      -6.4      2.576      4.216
REMARK  7 active torsions:
REMARK  status: ('A' for Active; 'I' for Inactive)
REMARK    1  A    between atoms: C_2  and  C_3 
REMARK    2  A    between atoms: C_3  and  O_6 
REMARK    3  A    between atoms: C_3  and  C_4 
REMARK    4  A    between atoms: C_7  and  O_6 
REMARK    5  A    between atoms: C_9  and  C_10 
REMARK    6  A    between atoms: N_15  and  C_14 
REMARK    7  A    between atoms: N_20  and  C_19 
REMARK       I    between atoms: C_22  and  N_20 
ROOT
ATOM      1  C   LIG d   1       1.248  81.212 110.814  0.00  0.00     0.161 C 
ATOM      2  C   LIG d   1       1.265  79.882 110.361  0.00  0.00     0.016 C 
ATOM      3  C   LIG d   1       0.269  78.934 110.692  0.00  0.00     0.038 C 
ATOM      4  C   LIG d   1      -0.899  79.296 111.378  0.00  0.00     0.028 C 
ATOM      5  C   LIG d   1      -0.718  80.508 112.286  0.00  0.00    -0.047 C 
ATOM      6  C   LIG d   1      -0.076  81.654 111.472  0.00  0.00     0.091 C 
ENDROOT
BRANCH   1   7
ATOM      7  O   LIG d   1       1.591  82.101 109.732  0.00  0.00    -0.368 OA
BRANCH   7   8
ATOM      8  C   LIG d   1       2.853  82.801 109.859  0.00  0.00     0.119 C 
BRANCH   8   9
ATOM      9  C   LIG d   1       3.795  82.259 108.767  0.00  0.00     0.028 C 
ATOM     10  C   LIG d   1       4.830  81.268 109.325  0.00  0.00     0.006 C 
ENDBRANCH   8   9
BRANCH   8  11
ATOM     11  C   LIG d   1       3.541  82.474 111.188  0.00  0.00     0.028 C 
ATOM     12  C   LIG d   1       3.762  83.716 112.065  0.00  0.00     0.006 C 
ENDBRANCH   8  11
ENDBRANCH   7   8
ENDBRANCH   1   7
BRANCH   6  13
ATOM     13  N   LIG d   1       0.213  82.849 112.306  0.00  0.00    -0.311 N 
ATOM     14  C   LIG d   1      -0.159  84.084 111.972  0.00  0.00     0.210 C 
ATOM     15  C   LIG d   1       0.257  85.175 112.963  0.00  0.00     0.109 C 
ATOM     16  O   LIG d   1      -0.823  84.374 110.966  0.00  0.00    -0.276 OA
ATOM     17  H   LIG d   1       0.721  82.700 113.156  0.00  0.00     0.149 HD
ENDBRANCH   6  13
BRANCH   5  18
ATOM     18  N   LIG d   1      -2.043  80.858 112.832  0.00  0.00     0.381 N 
ATOM     19  H   LIG d   1      -2.329  81.750 112.482  0.00  0.00    -0.090 HD
ATOM     20  H   LIG d   1      -1.977  80.918 113.833  0.00  0.00    -0.090 HD
ATOM     21  H   LIG d   1      -2.711  80.164 112.577  0.00  0.00    -0.090 HD
ENDBRANCH   5  18
BRANCH   3  22
ATOM     22  C   LIG d   1       0.457  77.599 110.368  0.00  0.00     0.382 C 
ATOM     23  O   LIG d   1      -0.398  76.746 110.708  0.00  0.00    -0.241 OA
ATOM     24  O   LIG d   1       1.492  77.231 109.780  0.00  0.00    -0.241 OA
ENDBRANCH   3  22
TORSDOF 7
ENDMDL
MODEL 3
REMARK VINA RESULT:      -6.3      2.463      4.417
REMARK  7 active torsions:
REMARK  status: ('A' for Active; 'I' for Inactive)
REMARK    1  A    between atoms: C_2  and  C_3 
REMARK    2  A    between atoms: C_3  and  O_6 
REMARK    3  A    between atoms: C_3  and  C_4 
REMARK    4  A    between atoms: C_7  and  O_6 
REMARK    5  A    between atoms: C_9  and  C_10 
REMARK    6  A    between atoms: N_15  and  C_14 
REMARK    7  A    between atoms: N_20  and  C_19 
REMARK       I    between atoms: C_22  and  N_20 
ROOT
ATOM      1  C   LIG d   1       2.103  83.091 112.387  0.00  0.00     0.161 C 
ATOM      2  C   LIG d   1       1.041  82.173 112.321  0.00  0.00     0.016 C 
ATOM      3  C   LIG d   1      -0.309  82.556 112.145  0.00  0.00     0.038 C 
ATOM      4  C   LIG d   1      -0.673  83.883 111.870  0.00  0.00     0.028 C 
ATOM      5  C   LIG d   1       0.307  84.908 112.429  0.00  0.00    -0.047 C 
ATOM      6  C   LIG d   1       1.737  84.533 111.979  0.00  0.00     0.091 C 
ENDROOT
BRANCH   1   7
ATOM      7  O   LIG d   1       3.212  82.613 111.600  0.00  0.00    -0.368 OA
BRANCH   7   8
ATOM      8  C   LIG d   1       2.873  81.956 110.354  0.00  0.00     0.119 C 
BRANCH   8   9
ATOM      9  C   LIG d   1       3.613  80.604 110.327  0.00  0.00     0.028 C 
ATOM     10  C   LIG d   1       2.663  79.419 110.084  0.00  0.00     0.006 C 
ENDBRANCH   8   9
BRANCH   8  11
ATOM     11  C   LIG d   1       3.407  82.735 109.150  0.00  0.00     0.028 C 
ATOM     12  C   LIG d   1       4.720  82.156 108.599  0.00  0.00     0.006 C 
ENDBRANCH   8  11
ENDBRANCH   7   8
ENDBRANCH   1   7
BRANCH   6  13
ATOM     13  N   LIG d   1       2.768  85.438 112.552  0.00  0.00    -0.311 N 
ATOM     14  C   LIG d   1       3.136  86.584 111.982  0.00  0.00     0.210 C 
ATOM     15  C   LIG d   1       4.229  87.355 112.729  0.00  0.00     0.109 C 
ATOM     16  O   LIG d   1       2.638  87.051 110.947  0.00  0.00    -0.276 OA
ATOM     17  H   LIG d   1       3.202  85.150 113.407  0.00  0.00     0.149 HD
ENDBRANCH   6  13
BRANCH   5  18
ATOM     18  N   LIG d   1      -0.119  86.238 111.953  0.00  0.00     0.381 N 
ATOM     19  H   LIG d   1       0.669  86.853 111.917  0.00  0.00    -0.090 HD
ATOM     20  H   LIG d   1      -0.785  86.617 112.603  0.00  0.00    -0.090 HD
ATOM     21  H   LIG d   1      -0.532  86.160 111.050  0.00  0.00    -0.090 HD
ENDBRANCH   5  18
BRANCH   3  22
ATOM     22  C   LIG d   1      -1.315  81.612 112.283  0.00  0.00     0.382 C 
ATOM     23  O   LIG d   1      -1.105  80.420 111.951  0.00  0.00    -0.241 OA
ATOM     24  O   LIG d   1      -2.442  81.946 112.693  0.00  0.00    -0.241 OA
ENDBRANCH   3  22
TORSDOF 7
ENDMDL
MODEL 4
REMARK VINA RESULT:      -6.0      2.190      5.577
REMARK  7 active torsions:
REMARK  status: ('A' for Active; 'I' for Inactive)
REMARK    1  A    between atoms: C_2  and  C_3 
REMARK    2  A    between atoms: C_3  and  O_6 
REMARK    3  A    between atoms: C_3  and  C_4 
REMARK    4  A    between atoms: C_7  and  O_6 
REMARK    5  A    between atoms: C_9  and  C_10 
REMARK    6  A    between atoms: N_15  and  C_14 
REMARK    7  A    between atoms: N_20  and  C_19 
REMARK       I    between atoms: C_22  and  N_20 
ROOT
ATOM      1  C   LIG d   1       1.023  82.804 110.504  0.00  0.00     0.161 C 
ATOM      2  C   LIG d   1       1.632  84.045 110.255  0.00  0.00     0.016 C 
ATOM      3  C   LIG d   1       2.278  84.809 111.254  0.00  0.00     0.038 C 
ATOM      4  C   LIG d   1       2.494  84.309 112.547  0.00  0.00     0.028 C 
ATOM      5  C   LIG d   1       1.457  83.278 112.978  0.00  0.00    -0.047 C 
ATOM      6  C   LIG d   1       1.345  82.191 111.884  0.00  0.00     0.091 C 
ENDROOT
BRANCH   1   7
ATOM      7  O   LIG d   1       1.359  81.875 109.454  0.00  0.00    -0.368 OA
BRANCH   7   8
ATOM      8  C   LIG d   1       2.497  81.015 109.703  0.00  0.00     0.119 C 
BRANCH   8   9
ATOM      9  C   LIG d   1       3.609  81.421 108.716  0.00  0.00     0.028 C 
ATOM     10  C   LIG d   1       4.799  82.096 109.418  0.00  0.00     0.006 C 
ENDBRANCH   8   9
BRANCH   8  11
ATOM     11  C   LIG d   1       2.175  79.555 109.373  0.00  0.00     0.028 C 
ATOM     12  C   LIG d   1       0.696  79.337 109.014  0.00  0.00     0.006 C 
ENDBRANCH   8  11
ENDBRANCH   7   8
ENDBRANCH   1   7
BRANCH   6  13
ATOM     13  N   LIG d   1       0.291  81.188 112.187  0.00  0.00    -0.311 N 
ATOM     14  C   LIG d   1      -0.985  81.506 112.396  0.00  0.00     0.210 C 
ATOM     15  C   LIG d   1      -1.903  80.321 112.714  0.00  0.00     0.109 C 
ATOM     16  O   LIG d   1      -1.451  82.653 112.318  0.00  0.00    -0.276 OA
ATOM     17  H   LIG d   1       0.575  80.229 112.239  0.00  0.00     0.149 HD
ENDBRANCH   6  13
BRANCH   5  18
ATOM     18  N   LIG d   1       1.879  82.741 114.285  0.00  0.00     0.381 N 
ATOM     19  H   LIG d   1       1.074  82.540 114.845  0.00  0.00    -0.090 HD
ATOM     20  H   LIG d   1       2.428  83.435 114.760  0.00  0.00    -0.090 HD
ATOM     21  H   LIG d   1       2.417  81.913 114.156  0.00  0.00    -0.090 HD
ENDBRANCH   5  18
BRANCH   3  22
ATOM     22  C   LIG d   1       2.683  86.105 110.973  0.00  0.00     0.382 C 
ATOM     23  O   LIG d   1       1.893  86.900 110.409  0.00  0.00    -0.241 OA
ATOM     24  O   LIG d   1       3.842  86.476 111.236  0.00  0.00    -0.241 OA
ENDBRANCH   3  22
TORSDOF 7
ENDMDL
MODEL 5
REMARK VINA RESULT:      -5.9      1.757      4.903
REMARK  7 active torsions:
REMARK  status: ('A' for Active; 'I' for Inactive)
REMARK    1  A    between atoms: C_2  and  C_3 
REMARK    2  A    between atoms: C_3  and  O_6 
REMARK    3  A    between atoms: C_3  and  C_4 
REMARK    4  A    between atoms: C_7  and  O_6 
REMARK    5  A    between atoms: C_9  and  C_10 
REMARK    6  A    between atoms: N_15  and  C_14 
REMARK    7  A    between atoms: N_20  and  C_19 
REMARK       I    between atoms: C_22  and  N_20 
ROOT
ATOM      1  C   LIG d   1       1.613  82.855 111.099  0.00  0.00     0.161 C 
ATOM      2  C   LIG d   1       2.864  82.811 110.463  0.00  0.00     0.016 C 
ATOM      3  C   LIG d   1       3.159  81.946 109.384  0.00  0.00     0.038 C 
ATOM      4  C   LIG d   1       2.169  81.168 108.765  0.00  0.00     0.028 C 
ATOM      5  C   LIG d   1       1.016  80.805 109.695  0.00  0.00    -0.047 C 
ATOM      6  C   LIG d   1       0.488  82.093 110.366  0.00  0.00     0.091 C 
ENDROOT
BRANCH   1   7
ATOM      7  O   LIG d   1       1.226  84.225 111.323  0.00  0.00    -0.368 OA
BRANCH   7   8
ATOM      8  C   LIG d   1       1.752  85.197 110.386  0.00  0.00     0.119 C 
BRANCH   8   9
ATOM      9  C   LIG d   1       2.178  86.437 111.196  0.00  0.00     0.028 C 
ATOM     10  C   LIG d   1       3.671  86.414 111.562  0.00  0.00     0.006 C 
ENDBRANCH   8   9
BRANCH   8  11
ATOM     11  C   LIG d   1       0.664  85.693 109.428  0.00  0.00     0.028 C 
ATOM     12  C   LIG d   1      -0.738  85.672 110.057  0.00  0.00     0.006 C 
ENDBRANCH   8  11
ENDBRANCH   7   8
ENDBRANCH   1   7
BRANCH   6  13
ATOM     13  N   LIG d   1      -0.587  81.818 111.355  0.00  0.00    -0.311 N 
ATOM     14  C   LIG d   1      -0.615  80.729 112.123  0.00  0.00     0.210 C 
ATOM     15  C   LIG d   1      -1.822  80.630 113.060  0.00  0.00     0.109 C 
ATOM     16  O   LIG d   1       0.262  79.852 112.139  0.00  0.00    -0.276 OA
ATOM     17  H   LIG d   1      -1.322  82.493 111.430  0.00  0.00     0.149 HD
ENDBRANCH   6  13
BRANCH   5  18
ATOM     18  N   LIG d   1      -0.007  80.114 108.887  0.00  0.00     0.381 N 
ATOM     19  H   LIG d   1      -0.864  80.061 109.399  0.00  0.00    -0.090 HD
ATOM     20  H   LIG d   1       0.306  79.178 108.698  0.00  0.00    -0.090 HD
ATOM     21  H   LIG d   1      -0.152  80.602 108.031  0.00  0.00    -0.090 HD
ENDBRANCH   5  18
BRANCH   3  22
ATOM     22  C   LIG d   1       4.466  81.824 108.938  0.00  0.00     0.382 C 
ATOM     23  O   LIG d   1       5.171  80.858 109.319  0.00  0.00    -0.241 OA
ATOM     24  O   LIG d   1       4.965  82.692 108.196  0.00  0.00    -0.241 OA
ENDBRANCH   3  22
TORSDOF 7
ENDMDL
MODEL 6
REMARK VINA RESULT:      -5.9      2.128      4.772
REMARK  7 active torsions:
REMARK  status: ('A' for Active; 'I' for Inactive)
REMARK    1  A    between atoms: C_2  and  C_3 
REMARK    2  A    between atoms: C_3  and  O_6 
REMARK    3  A    between atoms: C_3  and  C_4 
REMARK    4  A    between atoms: C_7  and  O_6 
REMARK    5  A    between atoms: C_9  and  C_10 
REMARK    6  A    between atoms: N_15  and  C_14 
REMARK    7  A    between atoms: N_20  and  C_19 
REMARK       I    between atoms: C_22  and  N_20 
ROOT
ATOM      1  C   LIG d   1       0.968  82.915 112.236  0.00  0.00     0.161 C 
ATOM      2  C   LIG d   1       0.067  83.973 112.441  0.00  0.00     0.016 C 
ATOM      3  C   LIG d   1      -0.286  84.902 111.435  0.00  0.00     0.038 C 
ATOM      4  C   LIG d   1       0.127  84.745 110.104  0.00  0.00     0.028 C 
ATOM      5  C   LIG d   1       1.440  83.982 109.962  0.00  0.00    -0.047 C 
ATOM      6  C   LIG d   1       1.342  82.662 110.760  0.00  0.00     0.091 C 
ENDROOT
BRANCH   1   7
ATOM      7  O   LIG d   1       0.452  81.711 112.836  0.00  0.00    -0.368 OA
BRANCH   7   8
ATOM      8  C   LIG d   1      -0.451  80.927 112.018  0.00  0.00     0.119 C 
BRANCH   8   9
ATOM      9  C   LIG d   1      -1.816  80.898 112.734  0.00  0.00     0.028 C 
ATOM     10  C   LIG d   1      -1.986  79.655 113.623  0.00  0.00     0.006 C 
ENDBRANCH   8   9
BRANCH   8  11
ATOM     11  C   LIG d   1      -0.004  79.465 111.937  0.00  0.00     0.028 C 
ATOM     12  C   LIG d   1      -0.123  78.883 110.520  0.00  0.00     0.006 C 
ENDBRANCH   8  11
ENDBRANCH   7   8
ENDBRANCH   1   7
BRANCH   6  13
ATOM     13  N   LIG d   1       2.614  81.894 110.744  0.00  0.00    -0.311 N 
ATOM     14  C   LIG d   1       2.916  80.995 109.810  0.00  0.00     0.210 C 
ATOM     15  C   LIG d   1       4.270  80.302 109.992  0.00  0.00     0.109 C 
ATOM     16  O   LIG d   1       2.205  80.727 108.830  0.00  0.00    -0.276 OA
ATOM     17  H   LIG d   1       3.263  82.071 111.486  0.00  0.00     0.149 HD
ENDBRANCH   6  13
BRANCH   5  18
ATOM     18  N   LIG d   1       1.680  83.771 108.522  0.00  0.00     0.381 N 
ATOM     19  H   LIG d   1       0.812  83.594 108.057  0.00  0.00    -0.090 HD
ATOM     20  H   LIG d   1       2.271  82.967 108.406  0.00  0.00    -0.090 HD
ATOM     21  H   LIG d   1       2.118  84.575 108.128  0.00  0.00    -0.090 HD
ENDBRANCH   5  18
BRANCH   3  22
ATOM     22  C   LIG d   1      -1.027  86.026 111.767  0.00  0.00     0.382 C 
ATOM     23  O   LIG d   1      -1.271  86.283 112.970  0.00  0.00    -0.241 OA
ATOM     24  O   LIG d   1      -1.493  86.761 110.876  0.00  0.00    -0.241 OA
ENDBRANCH   3  22
TORSDOF 7
ENDMDL
MODEL 7
REMARK VINA RESULT:      -5.8      2.392      4.581
REMARK  7 active torsions:
REMARK  status: ('A' for Active; 'I' for Inactive)
REMARK    1  A    between atoms: C_2  and  C_3 
REMARK    2  A    between atoms: C_3  and  O_6 
REMARK    3  A    between atoms: C_3  and  C_4 
REMARK    4  A    between atoms: C_7  and  O_6 
REMARK    5  A    between atoms: C_9  and  C_10 
REMARK    6  A    between atoms: N_15  and  C_14 
REMARK    7  A    between atoms: N_20  and  C_19 
REMARK       I    between atoms: C_22  and  N_20 
ROOT
ATOM      1  C   LIG d   1       1.337  83.603 109.638  0.00  0.00     0.161 C 
ATOM      2  C   LIG d   1       1.454  84.928 110.090  0.00  0.00     0.016 C 
ATOM      3  C   LIG d   1       0.865  85.397 111.286  0.00  0.00     0.038 C 
ATOM      4  C   LIG d   1       0.241  84.530 112.195  0.00  0.00     0.028 C 
ATOM      5  C   LIG d   1      -0.339  83.281 111.540  0.00  0.00    -0.047 C 
ATOM      6  C   LIG d   1       0.754  82.616 110.672  0.00  0.00     0.091 C 
ENDROOT
BRANCH   1   7
ATOM      7  O   LIG d   1       2.614  83.134 109.163  0.00  0.00    -0.368 OA
BRANCH   7   8
ATOM      8  C   LIG d   1       3.733  83.308 110.067  0.00  0.00     0.119 C 
BRANCH   8   9
ATOM      9  C   LIG d   1       4.951  82.603 109.437  0.00  0.00     0.028 C 
ATOM     10  C   LIG d   1       4.801  81.072 109.425  0.00  0.00     0.006 C 
ENDBRANCH   8   9
BRANCH   8  11
ATOM     11  C   LIG d   1       3.492  82.589 111.397  0.00  0.00     0.028 C 
ATOM     12  C   LIG d   1       3.781  83.479 112.617  0.00  0.00     0.006 C 
ENDBRANCH   8  11
ENDBRANCH   7   8
ENDBRANCH   1   7
BRANCH   6  13
ATOM     13  N   LIG d   1       0.246  81.434 109.928  0.00  0.00    -0.311 N 
ATOM     14  C   LIG d   1       0.375  80.182 110.365  0.00  0.00     0.210 C 
ATOM     15  C   LIG d   1      -0.201  79.110 109.435  0.00  0.00     0.109 C 
ATOM     16  O   LIG d   1       0.883  79.861 111.449  0.00  0.00    -0.276 OA
ATOM     17  H   LIG d   1      -0.208  81.606 109.052  0.00  0.00     0.149 HD
ENDBRANCH   6  13
BRANCH   5  18
ATOM     18  N   LIG d   1      -0.836  82.403 112.616  0.00  0.00     0.381 N 
ATOM     19  H   LIG d   1      -1.794  82.169 112.447  0.00  0.00    -0.090 HD
ATOM     20  H   LIG d   1      -0.780  82.896 113.490  0.00  0.00    -0.090 HD
ATOM     21  H   LIG d   1      -0.287  81.572 112.659  0.00  0.00    -0.090 HD
ENDBRANCH   5  18
BRANCH   3  22
ATOM     22  C   LIG d   1       0.862  86.756 111.564  0.00  0.00     0.382 C 
ATOM     23  O   LIG d   1      -0.132  87.457 111.257  0.00  0.00    -0.241 OA
ATOM     24  O   LIG d   1       1.859  87.297 112.078  0.00  0.00    -0.241 OA
ENDBRANCH   3  22
TORSDOF 7
ENDMDL
MODEL 8
REMARK VINA RESULT:      -5.6      2.484      5.459
REMARK  7 active torsions:
REMARK  status: ('A' for Active; 'I' for Inactive)
REMARK    1  A    between atoms: C_2  and  C_3 
REMARK    2  A    between atoms: C_3  and  O_6 
REMARK    3  A    between atoms: C_3  and  C_4 
REMARK    4  A    between atoms: C_7  and  O_6 
REMARK    5  A    between atoms: C_9  and  C_10 
REMARK    6  A    between atoms: N_15  and  C_14 
REMARK    7  A    between atoms: N_20  and  C_19 
REMARK       I    between atoms: C_22  and  N_20 
ROOT
ATOM      1  C   LIG d   1       2.045  82.950 110.752  0.00  0.00     0.161 C 
ATOM      2  C   LIG d   1       2.556  84.237 110.517  0.00  0.00     0.016 C 
ATOM      3  C   LIG d   1       2.714  85.208 111.533  0.00  0.00     0.038 C 
ATOM      4  C   LIG d   1       2.511  84.905 112.887  0.00  0.00     0.028 C 
ATOM      5  C   LIG d   1       1.513  83.773 113.111  0.00  0.00    -0.047 C 
ATOM      6  C   LIG d   1       1.922  82.563 112.241  0.00  0.00     0.091 C 
ENDROOT
BRANCH   1   7
ATOM      7  O   LIG d   1       2.835  81.974 110.044  0.00  0.00    -0.368 OA
BRANCH   7   8
ATOM      8  C   LIG d   1       2.323  81.551 108.756  0.00  0.00     0.119 C 
BRANCH   8   9
ATOM      9  C   LIG d   1       2.065  80.034 108.835  0.00  0.00     0.028 C 
ATOM     10  C   LIG d   1       0.575  79.701 109.020  0.00  0.00     0.006 C 
ENDBRANCH   8   9
BRANCH   8  11
ATOM     11  C   LIG d   1       3.373  81.728 107.655  0.00  0.00     0.028 C 
ATOM     12  C   LIG d   1       4.750  82.132 108.203  0.00  0.00     0.006 C 
ENDBRANCH   8  11
ENDBRANCH   7   8
ENDBRANCH   1   7
BRANCH   6  13
ATOM     13  N   LIG d   1       0.951  81.442 112.336  0.00  0.00    -0.311 N 
ATOM     14  C   LIG d   1       1.055  80.456 113.226  0.00  0.00     0.210 C 
ATOM     15  C   LIG d   1      -0.041  79.390 113.140  0.00  0.00     0.109 C 
ATOM     16  O   LIG d   1       1.933  80.381 114.099  0.00  0.00    -0.276 OA
ATOM     17  H   LIG d   1       0.190  81.442 111.686  0.00  0.00     0.149 HD
ENDBRANCH   6  13
BRANCH   5  18
ATOM     18  N   LIG d   1       1.501  83.469 114.555  0.00  0.00     0.381 N 
ATOM     19  H   LIG d   1       0.579  83.205 114.838  0.00  0.00    -0.090 HD
ATOM     20  H   LIG d   1       1.763  84.296 115.063  0.00  0.00    -0.090 HD
ATOM     21  H   LIG d   1       2.141  82.732 114.753  0.00  0.00    -0.090 HD
ENDBRANCH   5  18
BRANCH   3  22
ATOM     22  C   LIG d   1       3.041  86.512 111.192  0.00  0.00     0.382 C 
ATOM     23  O   LIG d   1       2.204  87.233 110.598  0.00  0.00    -0.241 OA
ATOM     24  O   LIG d   1       4.178  86.961 111.431  0.00  0.00    -0.241 OA
ENDBRANCH   3  22
TORSDOF 7
ENDMDL
MODEL 9
REMARK VINA RESULT:      -5.6     24.191     27.004
REMARK  7 active torsions:
REMARK  status: ('A' for Active; 'I' for Inactive)
REMARK    1  A    between atoms: C_2  and  C_3 
REMARK    2  A    between atoms: C_3  and  O_6 
REMARK    3  A    between atoms: C_3  and  C_4 
REMARK    4  A    between atoms: C_7  and  O_6 
REMARK    5  A    between atoms: C_9  and  C_10 
REMARK    6  A    between atoms: N_15  and  C_14 
REMARK    7  A    between atoms: N_20  and  C_19 
REMARK       I    between atoms: C_22  and  N_20 
ROOT
ATOM      1  C   LIG d   1     -25.877  85.153 113.132  0.00  0.00     0.161 C 
ATOM      2  C   LIG d   1     -24.855  86.109 113.250  0.00  0.00     0.016 C 
ATOM      3  C   LIG d   1     -23.488  85.775 113.382  0.00  0.00     0.038 C 
ATOM      4  C   LIG d   1     -23.031  84.455 113.251  0.00  0.00     0.028 C 
ATOM      5  C   LIG d   1     -24.076  83.412 113.636  0.00  0.00    -0.047 C 
ATOM      6  C   LIG d   1     -25.388  83.712 112.876  0.00  0.00     0.091 C 
ENDROOT
BRANCH   1   7
ATOM      7  O   LIG d   1     -26.807  85.556 112.108  0.00  0.00    -0.368 OA
BRANCH   7   8
ATOM      8  C   LIG d   1     -26.672  86.914 111.622  0.00  0.00     0.119 C 
BRANCH   8   9
ATOM      9  C   LIG d   1     -27.753  87.764 112.317  0.00  0.00     0.028 C 
ATOM     10  C   LIG d   1     -27.182  89.056 112.926  0.00  0.00     0.006 C 
ENDBRANCH   8   9
BRANCH   8  11
ATOM     11  C   LIG d   1     -26.985  87.004 110.125  0.00  0.00     0.028 C 
ATOM     12  C   LIG d   1     -25.801  87.533 109.300  0.00  0.00     0.006 C 
ENDBRANCH   8  11
ENDBRANCH   7   8
ENDBRANCH   1   7
BRANCH   6  13
ATOM     13  N   LIG d   1     -26.488  82.789 113.259  0.00  0.00    -0.311 N 
ATOM     14  C   LIG d   1     -27.026  81.903 112.423  0.00  0.00     0.210 C 
ATOM     15  C   LIG d   1     -28.163  81.063 113.014  0.00  0.00     0.109 C 
ATOM     16  O   LIG d   1     -26.649  81.711 111.257  0.00  0.00    -0.276 OA
ATOM     17  H   LIG d   1     -26.834  82.855 114.197  0.00  0.00     0.149 HD
ENDBRANCH   6  13
BRANCH   5  18
ATOM     18  N   LIG d   1     -23.516  82.084 113.322  0.00  0.00     0.381 N 
ATOM     19  H   LIG d   1     -24.207  81.379 113.485  0.00  0.00    -0.090 HD
ATOM     20  H   LIG d   1     -22.736  81.908 113.931  0.00  0.00    -0.090 HD
ATOM     21  H   LIG d   1     -23.219  82.055 112.372  0.00  0.00    -0.090 HD
ENDBRANCH   5  18
BRANCH   3  22
ATOM     22  C   LIG d   1     -22.564  86.764 113.686  0.00  0.00     0.382 C 
ATOM     23  O   LIG d   1     -22.878  87.695 114.466  0.00  0.00    -0.241 OA
ATOM     24  O   LIG d   1     -21.437  86.760 113.157  0.00  0.00    -0.241 OA
ENDBRANCH   3  22
TORSDOF 7
ENDMDL
