MODEL 1
REMARK VINA RESULT:      -6.3      0.000      0.000
REMARK  7 active torsions:
REMARK  status: ('A' for Active; 'I' for Inactive)
REMARK    1  A    between atoms: C_2  and  C_3 
REMARK    2  A    between atoms: C_3  and  O_6 
REMARK    3  A    between atoms: C_3  and  C_4 
REMARK    4  A    between atoms: C_7  and  O_6 
REMARK    5  A    between atoms: C_9  and  C_10 
REMARK    6  A    between atoms: N_15  and  C_14 
REMARK    7  A    between atoms: N_20  and  C_19 
REMARK       I    between atoms: C_22  and  N_20 
ROOT
ATOM      1  C   LIG d   1      -0.013  82.878 111.158  0.00  0.00     0.161 C 
ATOM      2  C   LIG d   1      -1.088  82.574 112.010  0.00  0.00     0.016 C 
ATOM      3  C   LIG d   1      -1.522  81.255 112.277  0.00  0.00     0.038 C 
ATOM      4  C   LIG d   1      -0.809  80.135 111.824  0.00  0.00     0.028 C 
ATOM      5  C   LIG d   1      -0.016  80.397 110.548  0.00  0.00    -0.047 C 
ATOM      6  C   LIG d   1       0.846  81.665 110.744  0.00  0.00     0.091 C 
ENDROOT
BRANCH   1   7
ATOM      7  O   LIG d   1       0.813  83.896 111.758  0.00  0.00    -0.368 OA
BRANCH   7   8
ATOM      8  C   LIG d   1       0.805  85.189 111.105  0.00  0.00     0.119 C 
BRANCH   8   9
ATOM      9  C   LIG d   1      -0.030  86.144 111.980  0.00  0.00     0.028 C 
ATOM     10  C   LIG d   1      -1.368  86.523 111.323  0.00  0.00     0.006 C 
ENDBRANCH   8   9
BRANCH   8  11
ATOM     11  C   LIG d   1       0.075  85.130 109.759  0.00  0.00     0.028 C 
ATOM     12  C   LIG d   1       0.963  85.562 108.581  0.00  0.00     0.006 C 
ENDBRANCH   8  11
ENDBRANCH   7   8
ENDBRANCH   1   7
BRANCH   6  13
ATOM     13  N   LIG d   1       1.590  82.040 109.513  0.00  0.00    -0.311 N 
ATOM     14  C   LIG d   1       2.883  82.359 109.507  0.00  0.00     0.210 C 
ATOM     15  C   LIG d   1       3.450  82.735 108.134  0.00  0.00     0.109 C 
ATOM     16  O   LIG d   1       3.622  82.336 110.503  0.00  0.00    -0.276 OA
ATOM     17  H   LIG d   1       1.074  82.055 108.655  0.00  0.00     0.149 HD
ENDBRANCH   6  13
BRANCH   5  18
ATOM     18  N   LIG d   1       0.786  79.191 110.267  0.00  0.00     0.381 N 
ATOM     19  H   LIG d   1       1.621  79.446 109.778  0.00  0.00    -0.090 HD
ATOM     20  H   LIG d   1       0.252  78.575 109.679  0.00  0.00    -0.090 HD
ATOM     21  H   LIG d   1       1.019  78.729 111.118  0.00  0.00    -0.090 HD
ENDBRANCH   5  18
BRANCH   3  22
ATOM     22  C   LIG d   1      -2.704  81.047 112.971  0.00  0.00     0.382 C 
ATOM     23  O   LIG d   1      -3.260  79.923 112.940  0.00  0.00    -0.241 OA
ATOM     24  O   LIG d   1      -3.245  81.982 113.591  0.00  0.00    -0.241 OA
ENDBRANCH   3  22
TORSDOF 7
ENDMDL
MODEL 2
REMARK VINA RESULT:      -6.2      1.989      4.888
REMARK  7 active torsions:
REMARK  status: ('A' for Active; 'I' for Inactive)
REMARK    1  A    between atoms: C_2  and  C_3 
REMARK    2  A    between atoms: C_3  and  O_6 
REMARK    3  A    between atoms: C_3  and  C_4 
REMARK    4  A    between atoms: C_7  and  O_6 
REMARK    5  A    between atoms: C_9  and  C_10 
REMARK    6  A    between atoms: N_15  and  C_14 
REMARK    7  A    between atoms: N_20  and  C_19 
REMARK       I    between atoms: C_22  and  N_20 
ROOT
ATOM      1  C   LIG d   1       0.744  81.919 110.697  0.00  0.00     0.161 C 
ATOM      2  C   LIG d   1       1.685  82.442 109.796  0.00  0.00     0.016 C 
ATOM      3  C   LIG d   1       2.354  81.659 108.827  0.00  0.00     0.038 C 
ATOM      4  C   LIG d   1       2.013  80.318 108.593  0.00  0.00     0.028 C 
ATOM      5  C   LIG d   1       1.428  79.620 109.816  0.00  0.00    -0.047 C 
ATOM      6  C   LIG d   1       0.277  80.482 110.384  0.00  0.00     0.091 C 
ENDROOT
BRANCH   1   7
ATOM      7  O   LIG d   1      -0.390  82.805 110.789  0.00  0.00    -0.368 OA
BRANCH   7   8
ATOM      8  C   LIG d   1      -0.118  84.137 111.291  0.00  0.00     0.119 C 
BRANCH   8   9
ATOM      9  C   LIG d   1      -0.811  84.265 112.662  0.00  0.00     0.028 C 
ATOM     10  C   LIG d   1      -0.737  85.694 113.226  0.00  0.00     0.006 C 
ENDBRANCH   8   9
BRANCH   8  11
ATOM     11  C   LIG d   1      -0.766  85.207 110.408  0.00  0.00     0.028 C 
ATOM     12  C   LIG d   1       0.200  85.778 109.358  0.00  0.00     0.006 C 
ENDBRANCH   8  11
ENDBRANCH   7   8
ENDBRANCH   1   7
BRANCH   6  13
ATOM     13  N   LIG d   1      -0.296  79.913 111.632  0.00  0.00    -0.311 N 
ATOM     14  C   LIG d   1      -1.318  79.059 111.646  0.00  0.00     0.210 C 
ATOM     15  C   LIG d   1      -1.765  78.610 113.041  0.00  0.00     0.109 C 
ATOM     16  O   LIG d   1      -1.875  78.606 110.635  0.00  0.00    -0.276 OA
ATOM     17  H   LIG d   1       0.117  80.203 112.497  0.00  0.00     0.149 HD
ENDBRANCH   6  13
BRANCH   5  18
ATOM     18  N   LIG d   1       0.990  78.276 109.395  0.00  0.00     0.381 N 
ATOM     19  H   LIG d   1       0.727  78.292 108.430  0.00  0.00    -0.090 HD
ATOM     20  H   LIG d   1       0.186  78.011 109.937  0.00  0.00    -0.090 HD
ATOM     21  H   LIG d   1       1.725  77.618 109.536  0.00  0.00    -0.090 HD
ENDBRANCH   5  18
BRANCH   3  22
ATOM     22  C   LIG d   1       3.405  82.206 108.107  0.00  0.00     0.382 C 
ATOM     23  O   LIG d   1       3.193  83.150 107.308  0.00  0.00    -0.241 OA
ATOM     24  O   LIG d   1       4.555  81.738 108.213  0.00  0.00    -0.241 OA
ENDBRANCH   3  22
TORSDOF 7
ENDMDL
MODEL 3
REMARK VINA RESULT:      -6.0      1.629      4.930
REMARK  7 active torsions:
REMARK  status: ('A' for Active; 'I' for Inactive)
REMARK    1  A    between atoms: C_2  and  C_3 
REMARK    2  A    between atoms: C_3  and  O_6 
REMARK    3  A    between atoms: C_3  and  C_4 
REMARK    4  A    between atoms: C_7  and  O_6 
REMARK    5  A    between atoms: C_9  and  C_10 
REMARK    6  A    between atoms: N_15  and  C_14 
REMARK    7  A    between atoms: N_20  and  C_19 
REMARK       I    between atoms: C_22  and  N_20 
ROOT
ATOM      1  C   LIG d   1       1.640  83.124 111.452  0.00  0.00     0.161 C 
ATOM      2  C   LIG d   1       2.516  83.154 110.354  0.00  0.00     0.016 C 
ATOM      3  C   LIG d   1       2.442  82.243 109.275  0.00  0.00     0.038 C 
ATOM      4  C   LIG d   1       1.386  81.329 109.147  0.00  0.00     0.028 C 
ATOM      5  C   LIG d   1       0.767  80.927 110.481  0.00  0.00    -0.047 C 
ATOM      6  C   LIG d   1       0.413  82.205 111.276  0.00  0.00     0.091 C 
ENDROOT
BRANCH   1   7
ATOM      7  O   LIG d   1       1.220  84.463 111.779  0.00  0.00    -0.368 OA
BRANCH   7   8
ATOM      8  C   LIG d   1       0.153  85.013 110.967  0.00  0.00     0.119 C 
BRANCH   8   9
ATOM      9  C   LIG d   1       0.775  86.081 110.047  0.00  0.00     0.028 C 
ATOM     10  C   LIG d   1       0.761  85.663 108.567  0.00  0.00     0.006 C 
ENDBRANCH   8   9
BRANCH   8  11
ATOM     11  C   LIG d   1      -0.871  85.762 111.824  0.00  0.00     0.028 C 
ATOM     12  C   LIG d   1      -0.735  85.451 113.323  0.00  0.00     0.006 C 
ENDBRANCH   8  11
ENDBRANCH   7   8
ENDBRANCH   1   7
BRANCH   6  13
ATOM     13  N   LIG d   1      -0.120  81.901 112.629  0.00  0.00    -0.311 N 
ATOM     14  C   LIG d   1      -1.420  81.792 112.898  0.00  0.00     0.210 C 
ATOM     15  C   LIG d   1      -1.755  81.494 114.363  0.00  0.00     0.109 C 
ATOM     16  O   LIG d   1      -2.326  81.880 112.056  0.00  0.00    -0.276 OA
ATOM     17  H   LIG d   1       0.547  81.783 113.366  0.00  0.00     0.149 HD
ENDBRANCH   6  13
BRANCH   5  18
ATOM     18  N   LIG d   1      -0.407  80.082 110.192  0.00  0.00     0.381 N 
ATOM     19  H   LIG d   1      -1.041  80.107 110.965  0.00  0.00    -0.090 HD
ATOM     20  H   LIG d   1      -0.101  79.133 110.065  0.00  0.00    -0.090 HD
ATOM     21  H   LIG d   1      -0.864  80.404 109.367  0.00  0.00    -0.090 HD
ENDBRANCH   5  18
BRANCH   3  22
ATOM     22  C   LIG d   1       3.456  82.215 108.330  0.00  0.00     0.382 C 
ATOM     23  O   LIG d   1       4.433  81.443 108.482  0.00  0.00    -0.241 OA
ATOM     24  O   LIG d   1       3.428  82.983 107.350  0.00  0.00    -0.241 OA
ENDBRANCH   3  22
TORSDOF 7
ENDMDL
MODEL 4
REMARK VINA RESULT:      -6.0      2.069      5.171
REMARK  7 active torsions:
REMARK  status: ('A' for Active; 'I' for Inactive)
REMARK    1  A    between atoms: C_2  and  C_3 
REMARK    2  A    between atoms: C_3  and  O_6 
REMARK    3  A    between atoms: C_3  and  C_4 
REMARK    4  A    between atoms: C_7  and  O_6 
REMARK    5  A    between atoms: C_9  and  C_10 
REMARK    6  A    between atoms: N_15  and  C_14 
REMARK    7  A    between atoms: N_20  and  C_19 
REMARK       I    between atoms: C_22  and  N_20 
ROOT
ATOM      1  C   LIG d   1       2.278  83.214 111.651  0.00  0.00     0.161 C 
ATOM      2  C   LIG d   1       3.228  83.342 110.624  0.00  0.00     0.016 C 
ATOM      3  C   LIG d   1       3.109  82.701 109.370  0.00  0.00     0.038 C 
ATOM      4  C   LIG d   1       1.949  82.004 109.000  0.00  0.00     0.028 C 
ATOM      5  C   LIG d   1       1.185  81.428 110.187  0.00  0.00    -0.047 C 
ATOM      6  C   LIG d   1       0.952  82.548 111.226  0.00  0.00     0.091 C 
ENDROOT
BRANCH   1   7
ATOM      7  O   LIG d   1       2.024  84.502 112.245  0.00  0.00    -0.368 OA
BRANCH   7   8
ATOM      8  C   LIG d   1       2.405  85.655 111.455  0.00  0.00     0.119 C 
BRANCH   8   9
ATOM      9  C   LIG d   1       3.115  86.647 112.396  0.00  0.00     0.028 C 
ATOM     10  C   LIG d   1       4.639  86.441 112.425  0.00  0.00     0.006 C 
ENDBRANCH   8   9
BRANCH   8  11
ATOM     11  C   LIG d   1       1.176  86.402 110.930  0.00  0.00     0.028 C 
ATOM     12  C   LIG d   1       0.740  85.927 109.535  0.00  0.00     0.006 C 
ENDBRANCH   8  11
ENDBRANCH   7   8
ENDBRANCH   1   7
BRANCH   6  13
ATOM     13  N   LIG d   1       0.284  82.050 112.457  0.00  0.00    -0.311 N 
ATOM     14  C   LIG d   1      -1.038  82.015 112.610  0.00  0.00     0.210 C 
ATOM     15  C   LIG d   1      -1.518  81.483 113.964  0.00  0.00     0.109 C 
ATOM     16  O   LIG d   1      -1.860  82.343 111.741  0.00  0.00    -0.276 OA
ATOM     17  H   LIG d   1       0.876  81.734 113.201  0.00  0.00     0.149 HD
ENDBRANCH   6  13
BRANCH   5  18
ATOM     18  N   LIG d   1      -0.070  80.849 109.670  0.00  0.00     0.381 N 
ATOM     19  H   LIG d   1      -0.203  79.933 110.051  0.00  0.00    -0.090 HD
ATOM     20  H   LIG d   1      -0.003  80.768 108.671  0.00  0.00    -0.090 HD
ATOM     21  H   LIG d   1      -0.840  81.432 109.913  0.00  0.00    -0.090 HD
ENDBRANCH   5  18
BRANCH   3  22
ATOM     22  C   LIG d   1       4.176  82.720 108.484  0.00  0.00     0.382 C 
ATOM     23  O   LIG d   1       5.124  83.522 108.663  0.00  0.00    -0.241 OA
ATOM     24  O   LIG d   1       4.182  81.977 107.485  0.00  0.00    -0.241 OA
ENDBRANCH   3  22
TORSDOF 7
ENDMDL
MODEL 5
REMARK VINA RESULT:      -5.9      2.724      4.554
REMARK  7 active torsions:
REMARK  status: ('A' for Active; 'I' for Inactive)
REMARK    1  A    between atoms: C_2  and  C_3 
REMARK    2  A    between atoms: C_3  and  O_6 
REMARK    3  A    between atoms: C_3  and  C_4 
REMARK    4  A    between atoms: C_7  and  O_6 
REMARK    5  A    between atoms: C_9  and  C_10 
REMARK    6  A    between atoms: N_15  and  C_14 
REMARK    7  A    between atoms: N_20  and  C_19 
REMARK       I    between atoms: C_22  and  N_20 
ROOT
ATOM      1  C   LIG d   1       2.162  83.424 112.224  0.00  0.00     0.161 C 
ATOM      2  C   LIG d   1       1.087  82.532 112.076  0.00  0.00     0.016 C 
ATOM      3  C   LIG d   1      -0.263  82.902 112.272  0.00  0.00     0.038 C 
ATOM      4  C   LIG d   1      -0.644  84.235 112.484  0.00  0.00     0.028 C 
ATOM      5  C   LIG d   1       0.444  85.079 113.140  0.00  0.00    -0.047 C 
ATOM      6  C   LIG d   1       1.759  84.909 112.345  0.00  0.00     0.091 C 
ENDROOT
BRANCH   1   7
ATOM      7  O   LIG d   1       3.097  83.246 111.141  0.00  0.00    -0.368 OA
BRANCH   7   8
ATOM      8  C   LIG d   1       2.542  82.765 109.892  0.00  0.00     0.119 C 
BRANCH   8   9
ATOM      9  C   LIG d   1       3.512  81.707 109.332  0.00  0.00     0.028 C 
ATOM     10  C   LIG d   1       4.356  82.244 108.164  0.00  0.00     0.006 C 
ENDBRANCH   8   9
BRANCH   8  11
ATOM     11  C   LIG d   1       2.500  83.874 108.838  0.00  0.00     0.028 C 
ATOM     12  C   LIG d   1       1.107  84.509 108.696  0.00  0.00     0.006 C 
ENDBRANCH   8  11
ENDBRANCH   7   8
ENDBRANCH   1   7
BRANCH   6  13
ATOM     13  N   LIG d   1       2.896  85.634 112.969  0.00  0.00    -0.311 N 
ATOM     14  C   LIG d   1       3.209  86.895 112.678  0.00  0.00     0.210 C 
ATOM     15  C   LIG d   1       4.431  87.446 113.420  0.00  0.00     0.109 C 
ATOM     16  O   LIG d   1       2.572  87.621 111.900  0.00  0.00    -0.276 OA
ATOM     17  H   LIG d   1       3.448  85.130 113.635  0.00  0.00     0.149 HD
ENDBRANCH   6  13
BRANCH   5  18
ATOM     18  N   LIG d   1      -0.034  86.474 113.176  0.00  0.00     0.381 N 
ATOM     19  H   LIG d   1       0.423  87.006 112.462  0.00  0.00    -0.090 HD
ATOM     20  H   LIG d   1       0.199  86.875 114.067  0.00  0.00    -0.090 HD
ATOM     21  H   LIG d   1      -1.021  86.500 113.040  0.00  0.00    -0.090 HD
ENDBRANCH   5  18
BRANCH   3  22
ATOM     22  C   LIG d   1      -1.247  81.924 112.297  0.00  0.00     0.382 C 
ATOM     23  O   LIG d   1      -1.073  80.845 111.682  0.00  0.00    -0.241 OA
ATOM     24  O   LIG d   1      -2.323  82.127 112.890  0.00  0.00    -0.241 OA
ENDBRANCH   3  22
TORSDOF 7
ENDMDL
MODEL 6
REMARK VINA RESULT:      -5.7      2.493      4.399
REMARK  7 active torsions:
REMARK  status: ('A' for Active; 'I' for Inactive)
REMARK    1  A    between atoms: C_2  and  C_3 
REMARK    2  A    between atoms: C_3  and  O_6 
REMARK    3  A    between atoms: C_3  and  C_4 
REMARK    4  A    between atoms: C_7  and  O_6 
REMARK    5  A    between atoms: C_9  and  C_10 
REMARK    6  A    between atoms: N_15  and  C_14 
REMARK    7  A    between atoms: N_20  and  C_19 
REMARK       I    between atoms: C_22  and  N_20 
ROOT
ATOM      1  C   LIG d   1      -0.306  80.631 111.333  0.00  0.00     0.161 C 
ATOM      2  C   LIG d   1      -0.900  79.368 111.175  0.00  0.00     0.016 C 
ATOM      3  C   LIG d   1      -2.027  78.940 111.915  0.00  0.00     0.038 C 
ATOM      4  C   LIG d   1      -2.732  79.808 112.761  0.00  0.00     0.028 C 
ATOM      5  C   LIG d   1      -1.871  80.930 113.331  0.00  0.00    -0.047 C 
ATOM      6  C   LIG d   1      -1.129  81.632 112.171  0.00  0.00     0.091 C 
ENDROOT
BRANCH   1   7
ATOM      7  O   LIG d   1       0.000  81.192 110.041  0.00  0.00    -0.368 OA
BRANCH   7   8
ATOM      8  C   LIG d   1       1.402  81.439 109.769  0.00  0.00     0.119 C 
BRANCH   8   9
ATOM      9  C   LIG d   1       1.477  82.496 108.651  0.00  0.00     0.028 C 
ATOM     10  C   LIG d   1       2.925  82.818 108.245  0.00  0.00     0.006 C 
ENDBRANCH   8   9
BRANCH   8  11
ATOM     11  C   LIG d   1       2.086  80.194 109.197  0.00  0.00     0.028 C 
ATOM     12  C   LIG d   1       1.229  79.474 108.143  0.00  0.00     0.006 C 
ENDBRANCH   8  11
ENDBRANCH   7   8
ENDBRANCH   1   7
BRANCH   6  13
ATOM     13  N   LIG d   1      -0.199  82.689 112.649  0.00  0.00    -0.311 N 
ATOM     14  C   LIG d   1      -0.205  83.937 112.183  0.00  0.00     0.210 C 
ATOM     15  C   LIG d   1       0.850  84.862 112.798  0.00  0.00     0.109 C 
ATOM     16  O   LIG d   1      -1.005  84.374 111.342  0.00  0.00    -0.276 OA
ATOM     17  H   LIG d   1       0.463  82.429 113.353  0.00  0.00     0.149 HD
ENDBRANCH   6  13
BRANCH   5  18
ATOM     18  N   LIG d   1      -2.760  81.837 114.081  0.00  0.00     0.381 N 
ATOM     19  H   LIG d   1      -3.129  82.535 113.467  0.00  0.00    -0.090 HD
ATOM     20  H   LIG d   1      -2.225  82.298 114.796  0.00  0.00    -0.090 HD
ATOM     21  H   LIG d   1      -3.504  81.320 114.495  0.00  0.00    -0.090 HD
ENDBRANCH   5  18
BRANCH   3  22
ATOM     22  C   LIG d   1      -2.434  77.616 111.842  0.00  0.00     0.382 C 
ATOM     23  O   LIG d   1      -3.546  77.276 112.313  0.00  0.00    -0.241 OA
ATOM     24  O   LIG d   1      -1.685  76.751 111.350  0.00  0.00    -0.241 OA
ENDBRANCH   3  22
TORSDOF 7
ENDMDL
MODEL 7
REMARK VINA RESULT:      -5.5      1.925      5.175
REMARK  7 active torsions:
REMARK  status: ('A' for Active; 'I' for Inactive)
REMARK    1  A    between atoms: C_2  and  C_3 
REMARK    2  A    between atoms: C_3  and  O_6 
REMARK    3  A    between atoms: C_3  and  C_4 
REMARK    4  A    between atoms: C_7  and  O_6 
REMARK    5  A    between atoms: C_9  and  C_10 
REMARK    6  A    between atoms: N_15  and  C_14 
REMARK    7  A    between atoms: N_20  and  C_19 
REMARK       I    between atoms: C_22  and  N_20 
ROOT
ATOM      1  C   LIG d   1       1.645  81.414 111.451  0.00  0.00     0.161 C 
ATOM      2  C   LIG d   1       2.496  81.972 110.482  0.00  0.00     0.016 C 
ATOM      3  C   LIG d   1       2.358  81.733 109.095  0.00  0.00     0.038 C 
ATOM      4  C   LIG d   1       1.260  81.037 108.569  0.00  0.00     0.028 C 
ATOM      5  C   LIG d   1       0.656  80.032 109.543  0.00  0.00    -0.047 C 
ATOM      6  C   LIG d   1       0.376  80.742 110.887  0.00  0.00     0.091 C 
ENDROOT
BRANCH   1   7
ATOM      7  O   LIG d   1       1.292  82.416 112.425  0.00  0.00    -0.368 OA
BRANCH   7   8
ATOM      8  C   LIG d   1       0.287  83.376 112.016  0.00  0.00     0.119 C 
BRANCH   8   9
ATOM      9  C   LIG d   1       0.978  84.748 111.899  0.00  0.00     0.028 C 
ATOM     10  C   LIG d   1       2.186  84.879 112.843  0.00  0.00     0.006 C 
ENDBRANCH   8   9
BRANCH   8  11
ATOM     11  C   LIG d   1      -0.786  83.553 113.095  0.00  0.00     0.028 C 
ATOM     12  C   LIG d   1      -0.477  82.766 114.378  0.00  0.00     0.006 C 
ENDBRANCH   8  11
ENDBRANCH   7   8
ENDBRANCH   1   7
BRANCH   6  13
ATOM     13  N   LIG d   1      -0.138  79.810 111.925  0.00  0.00    -0.311 N 
ATOM     14  C   LIG d   1      -1.381  79.859 112.403  0.00  0.00     0.210 C 
ATOM     15  C   LIG d   1      -1.699  78.819 113.482  0.00  0.00     0.109 C 
ATOM     16  O   LIG d   1      -2.258  80.643 112.013  0.00  0.00    -0.276 OA
ATOM     17  H   LIG d   1       0.498  79.121 112.275  0.00  0.00     0.149 HD
ENDBRANCH   6  13
BRANCH   5  18
ATOM     18  N   LIG d   1      -0.560  79.479 108.917  0.00  0.00     0.381 N 
ATOM     19  H   LIG d   1      -0.568  79.698 107.941  0.00  0.00    -0.090 HD
ATOM     20  H   LIG d   1      -1.366  79.904 109.341  0.00  0.00    -0.090 HD
ATOM     21  H   LIG d   1      -0.590  78.492 109.044  0.00  0.00    -0.090 HD
ENDBRANCH   5  18
BRANCH   3  22
ATOM     22  C   LIG d   1       3.347  82.160 108.223  0.00  0.00     0.382 C 
ATOM     23  O   LIG d   1       4.495  81.658 108.283  0.00  0.00    -0.241 OA
ATOM     24  O   LIG d   1       3.118  83.072 107.406  0.00  0.00    -0.241 OA
ENDBRANCH   3  22
TORSDOF 7
ENDMDL
MODEL 8
REMARK VINA RESULT:      -5.4      2.319      4.068
REMARK  7 active torsions:
REMARK  status: ('A' for Active; 'I' for Inactive)
REMARK    1  A    between atoms: C_2  and  C_3 
REMARK    2  A    between atoms: C_3  and  O_6 
REMARK    3  A    between atoms: C_3  and  C_4 
REMARK    4  A    between atoms: C_7  and  O_6 
REMARK    5  A    between atoms: C_9  and  C_10 
REMARK    6  A    between atoms: N_15  and  C_14 
REMARK    7  A    between atoms: N_20  and  C_19 
REMARK       I    between atoms: C_22  and  N_20 
ROOT
ATOM      1  C   LIG d   1       1.078  81.842 111.440  0.00  0.00     0.161 C 
ATOM      2  C   LIG d   1      -0.148  81.202 111.686  0.00  0.00     0.016 C 
ATOM      3  C   LIG d   1      -1.175  81.766 112.476  0.00  0.00     0.038 C 
ATOM      4  C   LIG d   1      -1.105  83.084 112.953  0.00  0.00     0.028 C 
ATOM      5  C   LIG d   1       0.323  83.580 113.153  0.00  0.00    -0.047 C 
ATOM      6  C   LIG d   1       1.129  83.326 111.859  0.00  0.00     0.091 C 
ENDROOT
BRANCH   1   7
ATOM      7  O   LIG d   1       1.432  81.702 110.049  0.00  0.00    -0.368 OA
BRANCH   7   8
ATOM      8  C   LIG d   1       2.494  80.762 109.753  0.00  0.00     0.119 C 
BRANCH   8   9
ATOM      9  C   LIG d   1       3.512  81.484 108.849  0.00  0.00     0.028 C 
ATOM     10  C   LIG d   1       3.049  82.896 108.455  0.00  0.00     0.006 C 
ENDBRANCH   8   9
BRANCH   8  11
ATOM     11  C   LIG d   1       1.979  79.582 108.923  0.00  0.00     0.028 C 
ATOM     12  C   LIG d   1       0.608  79.857 108.285  0.00  0.00     0.006 C 
ENDBRANCH   8  11
ENDBRANCH   7   8
ENDBRANCH   1   7
BRANCH   6  13
ATOM     13  N   LIG d   1       2.559  83.706 111.998  0.00  0.00    -0.311 N 
ATOM     14  C   LIG d   1       3.037  84.901 111.657  0.00  0.00     0.210 C 
ATOM     15  C   LIG d   1       4.544  85.078 111.862  0.00  0.00     0.109 C 
ATOM     16  O   LIG d   1       2.349  85.843 111.234  0.00  0.00    -0.276 OA
ATOM     17  H   LIG d   1       3.182  83.012 112.362  0.00  0.00     0.149 HD
ENDBRANCH   6  13
BRANCH   5  18
ATOM     18  N   LIG d   1       0.252  85.007 113.519  0.00  0.00     0.381 N 
ATOM     19  H   LIG d   1       1.089  85.473 113.232  0.00  0.00    -0.090 HD
ATOM     20  H   LIG d   1       0.175  85.084 114.518  0.00  0.00    -0.090 HD
ATOM     21  H   LIG d   1      -0.539  85.432 113.085  0.00  0.00    -0.090 HD
ENDBRANCH   5  18
BRANCH   3  22
ATOM     22  C   LIG d   1      -2.272  80.995 112.831  0.00  0.00     0.382 C 
ATOM     23  O   LIG d   1      -3.432  81.407 112.589  0.00  0.00    -0.241 OA
ATOM     24  O   LIG d   1      -2.117  79.914 113.429  0.00  0.00    -0.241 OA
ENDBRANCH   3  22
TORSDOF 7
ENDMDL
MODEL 9
REMARK VINA RESULT:      -5.1      2.478      3.816
REMARK  7 active torsions:
REMARK  status: ('A' for Active; 'I' for Inactive)
REMARK    1  A    between atoms: C_2  and  C_3 
REMARK    2  A    between atoms: C_3  and  O_6 
REMARK    3  A    between atoms: C_3  and  C_4 
REMARK    4  A    between atoms: C_7  and  O_6 
REMARK    5  A    between atoms: C_9  and  C_10 
REMARK    6  A    between atoms: N_15  and  C_14 
REMARK    7  A    between atoms: N_20  and  C_19 
REMARK       I    between atoms: C_22  and  N_20 
ROOT
ATOM      1  C   LIG d   1       1.106  83.214 110.678  0.00  0.00     0.161 C 
ATOM      2  C   LIG d   1       0.445  81.981 110.796  0.00  0.00     0.016 C 
ATOM      3  C   LIG d   1      -0.302  81.605 111.936  0.00  0.00     0.038 C 
ATOM      4  C   LIG d   1      -0.566  82.504 112.979  0.00  0.00     0.028 C 
ATOM      5  C   LIG d   1       0.500  83.584 113.132  0.00  0.00    -0.047 C 
ATOM      6  C   LIG d   1       0.738  84.252 111.759  0.00  0.00     0.091 C 
ENDROOT
BRANCH   1   7
ATOM      7  O   LIG d   1       0.887  83.762 109.362  0.00  0.00    -0.368 OA
BRANCH   7   8
ATOM      8  C   LIG d   1       1.757  83.268 108.314  0.00  0.00     0.119 C 
BRANCH   8   9
ATOM      9  C   LIG d   1       3.211  83.489 108.776  0.00  0.00     0.028 C 
ATOM     10  C   LIG d   1       4.196  82.526 108.093  0.00  0.00     0.006 C 
ENDBRANCH   8   9
BRANCH   8  11
ATOM     11  C   LIG d   1       1.609  84.094 107.033  0.00  0.00     0.028 C 
ATOM     12  C   LIG d   1       1.152  85.537 107.303  0.00  0.00     0.006 C 
ENDBRANCH   8  11
ENDBRANCH   7   8
ENDBRANCH   1   7
BRANCH   6  13
ATOM     13  N   LIG d   1       1.826  85.263 111.801  0.00  0.00    -0.311 N 
ATOM     14  C   LIG d   1       3.077  84.980 112.161  0.00  0.00     0.210 C 
ATOM     15  C   LIG d   1       4.038  86.173 112.155  0.00  0.00     0.109 C 
ATOM     16  O   LIG d   1       3.489  83.847 112.454  0.00  0.00    -0.276 OA
ATOM     17  H   LIG d   1       1.587  86.202 111.549  0.00  0.00     0.149 HD
ENDBRANCH   6  13
BRANCH   5  18
ATOM     18  N   LIG d   1       0.031  84.531 114.162  0.00  0.00     0.381 N 
ATOM     19  H   LIG d   1      -0.964  84.471 114.249  0.00  0.00    -0.090 HD
ATOM     20  H   LIG d   1       0.267  85.465 113.877  0.00  0.00    -0.090 HD
ATOM     21  H   LIG d   1       0.461  84.324 115.036  0.00  0.00    -0.090 HD
ENDBRANCH   5  18
BRANCH   3  22
ATOM     22  C   LIG d   1      -0.761  80.302 112.058  0.00  0.00     0.382 C 
ATOM     23  O   LIG d   1      -0.729  79.727 113.173  0.00  0.00    -0.241 OA
ATOM     24  O   LIG d   1      -1.166  79.679 111.058  0.00  0.00    -0.241 OA
ENDBRANCH   3  22
TORSDOF 7
ENDMDL
