MODEL 1
REMARK VINA RESULT:      -4.7      0.000      0.000
REMARK  7 active torsions:
REMARK  status: ('A' for Active; 'I' for Inactive)
REMARK    1  A    between atoms: C_2  and  C_3 
REMARK    2  A    between atoms: C_3  and  O_6 
REMARK    3  A    between atoms: C_3  and  C_4 
REMARK    4  A    between atoms: C_7  and  O_6 
REMARK    5  A    between atoms: C_9  and  C_10 
REMARK    6  A    between atoms: N_15  and  C_14 
REMARK    7  A    between atoms: N_20  and  C_19 
REMARK       I    between atoms: C_22  and  N_20 
ROOT
ATOM      1  C   LIG d   1      -8.162  80.016 120.466  0.00  0.00     0.161 C 
ATOM      2  C   LIG d   1      -8.509  78.779 119.898  0.00  0.00     0.016 C 
ATOM      3  C   LIG d   1      -9.381  78.648 118.793  0.00  0.00     0.038 C 
ATOM      4  C   LIG d   1      -9.848  79.763 118.081  0.00  0.00     0.028 C 
ATOM      5  C   LIG d   1      -9.930  81.030 118.925  0.00  0.00    -0.047 C 
ATOM      6  C   LIG d   1      -8.573  81.249 119.634  0.00  0.00     0.091 C 
ENDROOT
BRANCH   1   7
ATOM      7  O   LIG d   1      -6.747  80.047 120.741  0.00  0.00    -0.368 OA
BRANCH   7   8
ATOM      8  C   LIG d   1      -5.914  80.657 119.726  0.00  0.00     0.119 C 
BRANCH   8   9
ATOM      9  C   LIG d   1      -5.438  79.536 118.782  0.00  0.00     0.028 C 
ATOM     10  C   LIG d   1      -5.982  79.700 117.353  0.00  0.00     0.006 C 
ENDBRANCH   8   9
BRANCH   8  11
ATOM     11  C   LIG d   1      -4.637  81.246 120.332  0.00  0.00     0.028 C 
ATOM     12  C   LIG d   1      -4.745  82.756 120.600  0.00  0.00     0.006 C 
ENDBRANCH   8  11
ENDBRANCH   7   8
ENDBRANCH   1   7
BRANCH   6  13
ATOM     13  N   LIG d   1      -8.593  82.422 120.546  0.00  0.00    -0.311 N 
ATOM     14  C   LIG d   1      -8.174  83.635 120.190  0.00  0.00     0.210 C 
ATOM     15  C   LIG d   1      -8.262  84.698 121.290  0.00  0.00     0.109 C 
ATOM     16  O   LIG d   1      -7.768  83.939 119.059  0.00  0.00    -0.276 OA
ATOM     17  H   LIG d   1      -8.937  82.272 121.475  0.00  0.00     0.149 HD
ENDBRANCH   6  13
BRANCH   5  18
ATOM     18  N   LIG d   1     -10.298  82.141 118.026  0.00  0.00     0.381 N 
ATOM     19  H   LIG d   1     -11.028  82.684 118.442  0.00  0.00    -0.090 HD
ATOM     20  H   LIG d   1     -10.641  81.760 117.162  0.00  0.00    -0.090 HD
ATOM     21  H   LIG d   1      -9.503  82.716 117.852  0.00  0.00    -0.090 HD
ENDBRANCH   5  18
BRANCH   3  22
ATOM     22  C   LIG d   1      -9.826  77.391 118.414  0.00  0.00     0.382 C 
ATOM     23  O   LIG d   1     -11.049  77.117 118.465  0.00  0.00    -0.241 OA
ATOM     24  O   LIG d   1      -9.015  76.512 118.064  0.00  0.00    -0.241 OA
ENDBRANCH   3  22
TORSDOF 7
ENDMDL
MODEL 2
REMARK VINA RESULT:      -4.7     13.547     16.480
REMARK  7 active torsions:
REMARK  status: ('A' for Active; 'I' for Inactive)
REMARK    1  A    between atoms: C_2  and  C_3 
REMARK    2  A    between atoms: C_3  and  O_6 
REMARK    3  A    between atoms: C_3  and  C_4 
REMARK    4  A    between atoms: C_7  and  O_6 
REMARK    5  A    between atoms: C_9  and  C_10 
REMARK    6  A    between atoms: N_15  and  C_14 
REMARK    7  A    between atoms: N_20  and  C_19 
REMARK       I    between atoms: C_22  and  N_20 
ROOT
ATOM      1  C   LIG d   1     -13.446  65.774 121.716  0.00  0.00     0.161 C 
ATOM      2  C   LIG d   1     -12.305  65.263 122.356  0.00  0.00     0.016 C 
ATOM      3  C   LIG d   1     -11.597  64.128 121.897  0.00  0.00     0.038 C 
ATOM      4  C   LIG d   1     -11.897  63.512 120.672  0.00  0.00     0.028 C 
ATOM      5  C   LIG d   1     -13.353  63.683 120.249  0.00  0.00    -0.047 C 
ATOM      6  C   LIG d   1     -13.722  65.183 120.317  0.00  0.00     0.091 C 
ENDROOT
BRANCH   1   7
ATOM      7  O   LIG d   1     -13.364  67.211 121.645  0.00  0.00    -0.368 OA
BRANCH   7   8
ATOM      8  C   LIG d   1     -13.761  67.931 122.838  0.00  0.00     0.119 C 
BRANCH   8   9
ATOM      9  C   LIG d   1     -15.262  67.663 123.063  0.00  0.00     0.028 C 
ATOM     10  C   LIG d   1     -16.148  68.385 122.034  0.00  0.00     0.006 C 
ENDBRANCH   8   9
BRANCH   8  11
ATOM     11  C   LIG d   1     -13.645  69.445 122.639  0.00  0.00     0.028 C 
ATOM     12  C   LIG d   1     -12.700  70.109 123.654  0.00  0.00     0.006 C 
ENDBRANCH   8  11
ENDBRANCH   7   8
ENDBRANCH   1   7
BRANCH   6  13
ATOM     13  N   LIG d   1     -15.153  65.429 120.000  0.00  0.00    -0.311 N 
ATOM     14  C   LIG d   1     -15.566  66.001 118.870  0.00  0.00     0.210 C 
ATOM     15  C   LIG d   1     -17.082  66.179 118.752  0.00  0.00     0.109 C 
ATOM     16  O   LIG d   1     -14.821  66.348 117.940  0.00  0.00    -0.276 OA
ATOM     17  H   LIG d   1     -15.827  65.149 120.686  0.00  0.00     0.149 HD
ENDBRANCH   6  13
BRANCH   5  18
ATOM     18  N   LIG d   1     -13.493  63.114 118.895  0.00  0.00     0.381 N 
ATOM     19  H   LIG d   1     -14.380  63.370 118.511  0.00  0.00    -0.090 HD
ATOM     20  H   LIG d   1     -13.453  62.112 118.958  0.00  0.00    -0.090 HD
ATOM     21  H   LIG d   1     -12.760  63.447 118.308  0.00  0.00    -0.090 HD
ENDBRANCH   5  18
BRANCH   3  22
ATOM     22  C   LIG d   1     -10.602  63.573 122.686  0.00  0.00     0.382 C 
ATOM     23  O   LIG d   1     -10.259  62.378 122.515  0.00  0.00    -0.241 OA
ATOM     24  O   LIG d   1     -10.074  64.238 123.597  0.00  0.00    -0.241 OA
ENDBRANCH   3  22
TORSDOF 7
ENDMDL
MODEL 3
REMARK VINA RESULT:      -4.4      2.033      5.568
REMARK  7 active torsions:
REMARK  status: ('A' for Active; 'I' for Inactive)
REMARK    1  A    between atoms: C_2  and  C_3 
REMARK    2  A    between atoms: C_3  and  O_6 
REMARK    3  A    between atoms: C_3  and  C_4 
REMARK    4  A    between atoms: C_7  and  O_6 
REMARK    5  A    between atoms: C_9  and  C_10 
REMARK    6  A    between atoms: N_15  and  C_14 
REMARK    7  A    between atoms: N_20  and  C_19 
REMARK       I    between atoms: C_22  and  N_20 
ROOT
ATOM      1  C   LIG d   1      -7.803  83.307 119.753  0.00  0.00     0.161 C 
ATOM      2  C   LIG d   1      -7.779  84.533 120.437  0.00  0.00     0.016 C 
ATOM      3  C   LIG d   1      -8.787  84.941 121.340  0.00  0.00     0.038 C 
ATOM      4  C   LIG d   1      -9.820  84.078 121.737  0.00  0.00     0.028 C 
ATOM      5  C   LIG d   1     -10.162  83.022 120.692  0.00  0.00    -0.047 C 
ATOM      6  C   LIG d   1      -8.863  82.306 120.258  0.00  0.00     0.091 C 
ENDROOT
BRANCH   1   7
ATOM      7  O   LIG d   1      -6.493  82.706 119.781  0.00  0.00    -0.368 OA
BRANCH   7   8
ATOM      8  C   LIG d   1      -6.196  81.878 120.932  0.00  0.00     0.119 C 
BRANCH   8   9
ATOM      9  C   LIG d   1      -5.018  82.532 121.681  0.00  0.00     0.028 C 
ATOM     10  C   LIG d   1      -4.117  83.359 120.748  0.00  0.00     0.006 C 
ENDBRANCH   8   9
BRANCH   8  11
ATOM     11  C   LIG d   1      -5.690  80.496 120.509  0.00  0.00     0.028 C 
ATOM     12  C   LIG d   1      -5.574  80.345 118.984  0.00  0.00     0.006 C 
ENDBRANCH   8  11
ENDBRANCH   7   8
ENDBRANCH   1   7
BRANCH   6  13
ATOM     13  N   LIG d   1      -9.097  81.314 119.176  0.00  0.00    -0.311 N 
ATOM     14  C   LIG d   1      -9.282  80.014 119.399  0.00  0.00     0.210 C 
ATOM     15  C   LIG d   1      -9.487  79.164 118.142  0.00  0.00     0.109 C 
ATOM     16  O   LIG d   1      -9.329  79.490 120.522  0.00  0.00    -0.276 OA
ATOM     17  H   LIG d   1      -9.106  81.659 118.236  0.00  0.00     0.149 HD
ENDBRANCH   6  13
BRANCH   5  18
ATOM     18  N   LIG d   1     -11.154  82.108 121.290  0.00  0.00     0.381 N 
ATOM     19  H   LIG d   1     -12.078  82.449 121.113  0.00  0.00    -0.090 HD
ATOM     20  H   LIG d   1     -11.013  82.082 122.285  0.00  0.00    -0.090 HD
ATOM     21  H   LIG d   1     -11.050  81.194 120.908  0.00  0.00    -0.090 HD
ENDBRANCH   5  18
BRANCH   3  22
ATOM     22  C   LIG d   1      -8.791  86.240 121.825  0.00  0.00     0.382 C 
ATOM     23  O   LIG d   1      -9.878  86.845 121.987  0.00  0.00    -0.241 OA
ATOM     24  O   LIG d   1      -7.720  86.829 122.061  0.00  0.00    -0.241 OA
ENDBRANCH   3  22
TORSDOF 7
ENDMDL
MODEL 4
REMARK VINA RESULT:      -4.1     11.416     14.104
REMARK  7 active torsions:
REMARK  status: ('A' for Active; 'I' for Inactive)
REMARK    1  A    between atoms: C_2  and  C_3 
REMARK    2  A    between atoms: C_3  and  O_6 
REMARK    3  A    between atoms: C_3  and  C_4 
REMARK    4  A    between atoms: C_7  and  O_6 
REMARK    5  A    between atoms: C_9  and  C_10 
REMARK    6  A    between atoms: N_15  and  C_14 
REMARK    7  A    between atoms: N_20  and  C_19 
REMARK       I    between atoms: C_22  and  N_20 
ROOT
ATOM      1  C   LIG d   1      -3.014  93.391 119.367  0.00  0.00     0.161 C 
ATOM      2  C   LIG d   1      -2.411  92.257 118.797  0.00  0.00     0.016 C 
ATOM      3  C   LIG d   1      -3.095  91.351 117.956  0.00  0.00     0.038 C 
ATOM      4  C   LIG d   1      -4.399  91.600 117.502  0.00  0.00     0.028 C 
ATOM      5  C   LIG d   1      -5.215  92.469 118.453  0.00  0.00    -0.047 C 
ATOM      6  C   LIG d   1      -4.404  93.740 118.794  0.00  0.00     0.091 C 
ENDROOT
BRANCH   1   7
ATOM      7  O   LIG d   1      -2.129  94.523 119.258  0.00  0.00    -0.368 OA
BRANCH   7   8
ATOM      8  C   LIG d   1      -2.236  95.301 118.040  0.00  0.00     0.119 C 
BRANCH   8   9
ATOM      9  C   LIG d   1      -0.852  95.292 117.362  0.00  0.00     0.028 C 
ATOM     10  C   LIG d   1       0.262  94.814 118.308  0.00  0.00     0.006 C 
ENDBRANCH   8   9
BRANCH   8  11
ATOM     11  C   LIG d   1      -2.529  96.773 118.344  0.00  0.00     0.028 C 
ATOM     12  C   LIG d   1      -2.430  97.104 119.842  0.00  0.00     0.006 C 
ENDBRANCH   8  11
ENDBRANCH   7   8
ENDBRANCH   1   7
BRANCH   6  13
ATOM     13  N   LIG d   1      -5.095  94.605 119.785  0.00  0.00    -0.311 N 
ATOM     14  C   LIG d   1      -5.974  95.547 119.449  0.00  0.00     0.210 C 
ATOM     15  C   LIG d   1      -6.555  96.339 120.625  0.00  0.00     0.109 C 
ATOM     16  O   LIG d   1      -6.352  95.781 118.291  0.00  0.00    -0.276 OA
ATOM     17  H   LIG d   1      -4.871  94.462 120.750  0.00  0.00     0.149 HD
ENDBRANCH   6  13
BRANCH   5  18
ATOM     18  N   LIG d   1      -6.502  92.764 117.794  0.00  0.00     0.381 N 
ATOM     19  H   LIG d   1      -6.419  92.615 116.808  0.00  0.00    -0.090 HD
ATOM     20  H   LIG d   1      -6.733  93.730 117.949  0.00  0.00    -0.090 HD
ATOM     21  H   LIG d   1      -7.218  92.180 118.166  0.00  0.00    -0.090 HD
ENDBRANCH   5  18
BRANCH   3  22
ATOM     22  C   LIG d   1      -2.488  90.158 117.592  0.00  0.00     0.382 C 
ATOM     23  O   LIG d   1      -3.109  89.075 117.718  0.00  0.00    -0.241 OA
ATOM     24  O   LIG d   1      -1.313  90.148 117.181  0.00  0.00    -0.241 OA
ENDBRANCH   3  22
TORSDOF 7
ENDMDL
MODEL 5
REMARK VINA RESULT:      -4.0      1.325      2.048
REMARK  7 active torsions:
REMARK  status: ('A' for Active; 'I' for Inactive)
REMARK    1  A    between atoms: C_2  and  C_3 
REMARK    2  A    between atoms: C_3  and  O_6 
REMARK    3  A    between atoms: C_3  and  C_4 
REMARK    4  A    between atoms: C_7  and  O_6 
REMARK    5  A    between atoms: C_9  and  C_10 
REMARK    6  A    between atoms: N_15  and  C_14 
REMARK    7  A    between atoms: N_20  and  C_19 
REMARK       I    between atoms: C_22  and  N_20 
ROOT
ATOM      1  C   LIG d   1      -7.309  80.692 119.388  0.00  0.00     0.161 C 
ATOM      2  C   LIG d   1      -7.691  79.348 119.245  0.00  0.00     0.016 C 
ATOM      3  C   LIG d   1      -8.898  78.944 118.629  0.00  0.00     0.038 C 
ATOM      4  C   LIG d   1      -9.738  79.856 117.974  0.00  0.00     0.028 C 
ATOM      5  C   LIG d   1      -9.645  81.273 118.532  0.00  0.00    -0.047 C 
ATOM      6  C   LIG d   1      -8.159  81.696 118.582  0.00  0.00     0.091 C 
ENDROOT
BRANCH   1   7
ATOM      7  O   LIG d   1      -5.913  80.841 119.059  0.00  0.00    -0.368 OA
BRANCH   7   8
ATOM      8  C   LIG d   1      -4.989  80.807 120.174  0.00  0.00     0.119 C 
BRANCH   8   9
ATOM      9  C   LIG d   1      -4.811  82.254 120.673  0.00  0.00     0.028 C 
ATOM     10  C   LIG d   1      -5.265  82.432 122.131  0.00  0.00     0.006 C 
ENDBRANCH   8   9
BRANCH   8  11
ATOM     11  C   LIG d   1      -3.594  80.357 119.728  0.00  0.00     0.028 C 
ATOM     12  C   LIG d   1      -2.552  81.485 119.805  0.00  0.00     0.006 C 
ENDBRANCH   8  11
ENDBRANCH   7   8
ENDBRANCH   1   7
BRANCH   6  13
ATOM     13  N   LIG d   1      -7.972  83.037 119.194  0.00  0.00    -0.311 N 
ATOM     14  C   LIG d   1      -8.389  83.348 120.420  0.00  0.00     0.210 C 
ATOM     15  C   LIG d   1      -8.114  84.793 120.849  0.00  0.00     0.109 C 
ATOM     16  O   LIG d   1      -8.933  82.557 121.204  0.00  0.00    -0.276 OA
ATOM     17  H   LIG d   1      -7.512  83.732 118.638  0.00  0.00     0.149 HD
ENDBRANCH   6  13
BRANCH   5  18
ATOM     18  N   LIG d   1     -10.467  82.145 117.672  0.00  0.00     0.381 N 
ATOM     19  H   LIG d   1     -11.288  82.431 118.165  0.00  0.00    -0.090 HD
ATOM     20  H   LIG d   1     -10.751  81.626 116.860  0.00  0.00    -0.090 HD
ATOM     21  H   LIG d   1      -9.940  82.945 117.396  0.00  0.00    -0.090 HD
ENDBRANCH   5  18
BRANCH   3  22
ATOM     22  C   LIG d   1      -9.294  77.617 118.698  0.00  0.00     0.382 C 
ATOM     23  O   LIG d   1      -8.476  76.736 119.060  0.00  0.00    -0.241 OA
ATOM     24  O   LIG d   1     -10.445  77.282 118.361  0.00  0.00    -0.241 OA
ENDBRANCH   3  22
TORSDOF 7
ENDMDL
MODEL 6
REMARK VINA RESULT:      -4.0      9.070     11.636
REMARK  7 active torsions:
REMARK  status: ('A' for Active; 'I' for Inactive)
REMARK    1  A    between atoms: C_2  and  C_3 
REMARK    2  A    between atoms: C_3  and  O_6 
REMARK    3  A    between atoms: C_3  and  C_4 
REMARK    4  A    between atoms: C_7  and  O_6 
REMARK    5  A    between atoms: C_9  and  C_10 
REMARK    6  A    between atoms: N_15  and  C_14 
REMARK    7  A    between atoms: N_20  and  C_19 
REMARK       I    between atoms: C_22  and  N_20 
ROOT
ATOM      1  C   LIG d   1     -18.023  76.741 119.444  0.00  0.00     0.161 C 
ATOM      2  C   LIG d   1     -19.396  76.452 119.383  0.00  0.00     0.016 C 
ATOM      3  C   LIG d   1     -19.965  75.262 119.893  0.00  0.00     0.038 C 
ATOM      4  C   LIG d   1     -19.213  74.342 120.639  0.00  0.00     0.028 C 
ATOM      5  C   LIG d   1     -17.729  74.348 120.291  0.00  0.00    -0.047 C 
ATOM      6  C   LIG d   1     -17.204  75.800 120.354  0.00  0.00     0.091 C 
ENDROOT
BRANCH   1   7
ATOM      7  O   LIG d   1     -17.829  78.113 119.840  0.00  0.00    -0.368 OA
BRANCH   7   8
ATOM      8  C   LIG d   1     -18.185  78.439 121.206  0.00  0.00     0.119 C 
BRANCH   8   9
ATOM      9  C   LIG d   1     -19.149  79.640 121.159  0.00  0.00     0.028 C 
ATOM     10  C   LIG d   1     -20.610  79.230 121.408  0.00  0.00     0.006 C 
ENDBRANCH   8   9
BRANCH   8  11
ATOM     11  C   LIG d   1     -16.968  78.926 121.998  0.00  0.00     0.028 C 
ATOM     12  C   LIG d   1     -16.776  80.449 121.919  0.00  0.00     0.006 C 
ENDBRANCH   8  11
ENDBRANCH   7   8
ENDBRANCH   1   7
BRANCH   6  13
ATOM     13  N   LIG d   1     -15.779  75.907 119.944  0.00  0.00    -0.311 N 
ATOM     14  C   LIG d   1     -14.765  75.880 120.807  0.00  0.00     0.210 C 
ATOM     15  C   LIG d   1     -13.376  76.025 120.176  0.00  0.00     0.109 C 
ATOM     16  O   LIG d   1     -14.881  75.718 122.031  0.00  0.00    -0.276 OA
ATOM     17  H   LIG d   1     -15.592  76.009 118.966  0.00  0.00     0.149 HD
ENDBRANCH   6  13
BRANCH   5  18
ATOM     18  N   LIG d   1     -17.046  73.445 121.236  0.00  0.00     0.381 N 
ATOM     19  H   LIG d   1     -17.211  73.749 122.175  0.00  0.00    -0.090 HD
ATOM     20  H   LIG d   1     -16.056  73.480 121.062  0.00  0.00    -0.090 HD
ATOM     21  H   LIG d   1     -17.378  72.513 121.118  0.00  0.00    -0.090 HD
ENDBRANCH   5  18
BRANCH   3  22
ATOM     22  C   LIG d   1     -21.292  74.964 119.623  0.00  0.00     0.382 C 
ATOM     23  O   LIG d   1     -22.193  75.779 119.933  0.00  0.00    -0.241 OA
ATOM     24  O   LIG d   1     -21.602  73.870 119.114  0.00  0.00    -0.241 OA
ENDBRANCH   3  22
TORSDOF 7
ENDMDL
MODEL 7
REMARK VINA RESULT:      -3.9     14.548     16.353
REMARK  7 active torsions:
REMARK  status: ('A' for Active; 'I' for Inactive)
REMARK    1  A    between atoms: C_2  and  C_3 
REMARK    2  A    between atoms: C_3  and  O_6 
REMARK    3  A    between atoms: C_3  and  C_4 
REMARK    4  A    between atoms: C_7  and  O_6 
REMARK    5  A    between atoms: C_9  and  C_10 
REMARK    6  A    between atoms: N_15  and  C_14 
REMARK    7  A    between atoms: N_20  and  C_19 
REMARK       I    between atoms: C_22  and  N_20 
ROOT
ATOM      1  C   LIG d   1      -6.445  95.752 118.446  0.00  0.00     0.161 C 
ATOM      2  C   LIG d   1      -7.735  95.811 119.000  0.00  0.00     0.016 C 
ATOM      3  C   LIG d   1      -8.043  95.358 120.304  0.00  0.00     0.038 C 
ATOM      4  C   LIG d   1      -7.045  94.951 121.202  0.00  0.00     0.028 C 
ATOM      5  C   LIG d   1      -5.800  94.401 120.516  0.00  0.00    -0.047 C 
ATOM      6  C   LIG d   1      -5.324  95.415 119.451  0.00  0.00     0.091 C 
ENDROOT
BRANCH   1   7
ATOM      7  O   LIG d   1      -6.151  96.986 117.762  0.00  0.00    -0.368 OA
BRANCH   7   8
ATOM      8  C   LIG d   1      -5.380  97.960 118.508  0.00  0.00     0.119 C 
BRANCH   8   9
ATOM      9  C   LIG d   1      -6.334  99.106 118.897  0.00  0.00     0.028 C 
ATOM     10  C   LIG d   1      -6.553  99.198 120.416  0.00  0.00     0.006 C 
ENDBRANCH   8   9
BRANCH   8  11
ATOM     11  C   LIG d   1      -4.303  98.608 117.632  0.00  0.00     0.028 C 
ATOM     12  C   LIG d   1      -4.666 100.038 117.203  0.00  0.00     0.006 C 
ENDBRANCH   8  11
ENDBRANCH   7   8
ENDBRANCH   1   7
BRANCH   6  13
ATOM     13  N   LIG d   1      -4.159  94.917 118.675  0.00  0.00    -0.311 N 
ATOM     14  C   LIG d   1      -2.896  95.209 118.980  0.00  0.00     0.210 C 
ATOM     15  C   LIG d   1      -1.848  94.609 118.037  0.00  0.00     0.109 C 
ATOM     16  O   LIG d   1      -2.542  95.881 119.961  0.00  0.00    -0.276 OA
ATOM     17  H   LIG d   1      -4.353  94.339 117.880  0.00  0.00     0.149 HD
ENDBRANCH   6  13
BRANCH   5  18
ATOM     18  N   LIG d   1      -4.791  94.146 121.562  0.00  0.00     0.381 N 
ATOM     19  H   LIG d   1      -4.202  94.947 121.668  0.00  0.00    -0.090 HD
ATOM     20  H   LIG d   1      -4.219  93.369 121.280  0.00  0.00    -0.090 HD
ATOM     21  H   LIG d   1      -5.241  93.939 122.427  0.00  0.00    -0.090 HD
ENDBRANCH   5  18
BRANCH   3  22
ATOM     22  C   LIG d   1      -9.367  95.270 120.706  0.00  0.00     0.382 C 
ATOM     23  O   LIG d   1      -9.644  95.091 121.916  0.00  0.00    -0.241 OA
ATOM     24  O   LIG d   1     -10.287  95.324 119.868  0.00  0.00    -0.241 OA
ENDBRANCH   3  22
TORSDOF 7
ENDMDL
MODEL 8
REMARK VINA RESULT:      -3.9      9.951     12.470
REMARK  7 active torsions:
REMARK  status: ('A' for Active; 'I' for Inactive)
REMARK    1  A    between atoms: C_2  and  C_3 
REMARK    2  A    between atoms: C_3  and  O_6 
REMARK    3  A    between atoms: C_3  and  C_4 
REMARK    4  A    between atoms: C_7  and  O_6 
REMARK    5  A    between atoms: C_9  and  C_10 
REMARK    6  A    between atoms: N_15  and  C_14 
REMARK    7  A    between atoms: N_20  and  C_19 
REMARK       I    between atoms: C_22  and  N_20 
ROOT
ATOM      1  C   LIG d   1     -18.337  76.725 119.566  0.00  0.00     0.161 C 
ATOM      2  C   LIG d   1     -18.789  78.037 119.788  0.00  0.00     0.016 C 
ATOM      3  C   LIG d   1     -19.984  78.342 120.479  0.00  0.00     0.038 C 
ATOM      4  C   LIG d   1     -20.736  77.354 121.131  0.00  0.00     0.028 C 
ATOM      5  C   LIG d   1     -20.590  75.970 120.506  0.00  0.00    -0.047 C 
ATOM      6  C   LIG d   1     -19.086  75.639 120.366  0.00  0.00     0.091 C 
ENDROOT
BRANCH   1   7
ATOM      7  O   LIG d   1     -16.920  76.647 119.821  0.00  0.00    -0.368 OA
BRANCH   7   8
ATOM      8  C   LIG d   1     -16.533  76.094 121.103  0.00  0.00     0.119 C 
BRANCH   8   9
ATOM      9  C   LIG d   1     -16.040  77.261 121.981  0.00  0.00     0.028 C 
ATOM     10  C   LIG d   1     -17.044  77.626 123.088  0.00  0.00     0.006 C 
ENDBRANCH   8   9
BRANCH   8  11
ATOM     11  C   LIG d   1     -15.330  75.156 120.964  0.00  0.00     0.028 C 
ATOM     12  C   LIG d   1     -15.346  74.012 121.990  0.00  0.00     0.006 C 
ENDBRANCH   8  11
ENDBRANCH   7   8
ENDBRANCH   1   7
BRANCH   6  13
ATOM     13  N   LIG d   1     -18.853  74.339 119.686  0.00  0.00    -0.311 N 
ATOM     14  C   LIG d   1     -18.698  73.188 120.339  0.00  0.00     0.210 C 
ATOM     15  C   LIG d   1     -18.448  71.968 119.447  0.00  0.00     0.109 C 
ATOM     16  O   LIG d   1     -18.776  73.056 121.569  0.00  0.00    -0.276 OA
ATOM     17  H   LIG d   1     -18.806  74.349 118.686  0.00  0.00     0.149 HD
ENDBRANCH   6  13
BRANCH   5  18
ATOM     18  N   LIG d   1     -21.315  75.014 121.364  0.00  0.00     0.381 N 
ATOM     19  H   LIG d   1     -21.210  75.274 122.325  0.00  0.00    -0.090 HD
ATOM     20  H   LIG d   1     -20.917  74.100 121.240  0.00  0.00    -0.090 HD
ATOM     21  H   LIG d   1     -22.280  75.001 121.120  0.00  0.00    -0.090 HD
ENDBRANCH   5  18
BRANCH   3  22
ATOM     22  C   LIG d   1     -20.459  79.645 120.488  0.00  0.00     0.382 C 
ATOM     23  O   LIG d   1     -21.407  79.961 121.247  0.00  0.00    -0.241 OA
ATOM     24  O   LIG d   1     -19.982  80.497 119.715  0.00  0.00    -0.241 OA
ENDBRANCH   3  22
TORSDOF 7
ENDMDL
MODEL 9
REMARK VINA RESULT:      -3.9     12.023     14.366
REMARK  7 active torsions:
REMARK  status: ('A' for Active; 'I' for Inactive)
REMARK    1  A    between atoms: C_2  and  C_3 
REMARK    2  A    between atoms: C_3  and  O_6 
REMARK    3  A    between atoms: C_3  and  C_4 
REMARK    4  A    between atoms: C_7  and  O_6 
REMARK    5  A    between atoms: C_9  and  C_10 
REMARK    6  A    between atoms: N_15  and  C_14 
REMARK    7  A    between atoms: N_20  and  C_19 
REMARK       I    between atoms: C_22  and  N_20 
ROOT
ATOM      1  C   LIG d   1     -18.994  88.568 120.332  0.00  0.00     0.161 C 
ATOM      2  C   LIG d   1     -20.363  88.294 120.493  0.00  0.00     0.016 C 
ATOM      3  C   LIG d   1     -20.861  87.317 121.386  0.00  0.00     0.038 C 
ATOM      4  C   LIG d   1     -20.026  86.648 122.294  0.00  0.00     0.028 C 
ATOM      5  C   LIG d   1     -18.583  86.529 121.815  0.00  0.00    -0.047 C 
ATOM      6  C   LIG d   1     -18.077  87.927 121.394  0.00  0.00     0.091 C 
ENDROOT
BRANCH   1   7
ATOM      7  O   LIG d   1     -18.784  89.993 120.282  0.00  0.00    -0.368 OA
BRANCH   7   8
ATOM      8  C   LIG d   1     -19.449  90.771 121.307  0.00  0.00     0.119 C 
BRANCH   8   9
ATOM      9  C   LIG d   1     -20.142  91.959 120.611  0.00  0.00     0.028 C 
ATOM     10  C   LIG d   1     -19.331  93.260 120.724  0.00  0.00     0.006 C 
ENDBRANCH   8   9
BRANCH   8  11
ATOM     11  C   LIG d   1     -18.440  91.400 122.272  0.00  0.00     0.028 C 
ATOM     12  C   LIG d   1     -18.594  90.888 123.713  0.00  0.00     0.006 C 
ENDBRANCH   8  11
ENDBRANCH   7   8
ENDBRANCH   1   7
BRANCH   6  13
ATOM     13  N   LIG d   1     -16.701  87.886 120.834  0.00  0.00    -0.311 N 
ATOM     14  C   LIG d   1     -15.673  88.544 121.367  0.00  0.00     0.210 C 
ATOM     15  C   LIG d   1     -14.344  88.382 120.621  0.00  0.00     0.109 C 
ATOM     16  O   LIG d   1     -15.727  89.220 122.405  0.00  0.00    -0.276 OA
ATOM     17  H   LIG d   1     -16.560  87.336 120.009  0.00  0.00     0.149 HD
ENDBRANCH   6  13
BRANCH   5  18
ATOM     18  N   LIG d   1     -17.797  85.936 122.914  0.00  0.00     0.381 N 
ATOM     19  H   LIG d   1     -18.347  85.250 123.392  0.00  0.00    -0.090 HD
ATOM     20  H   LIG d   1     -17.556  86.660 123.568  0.00  0.00    -0.090 HD
ATOM     21  H   LIG d   1     -16.969  85.516 122.553  0.00  0.00    -0.090 HD
ENDBRANCH   5  18
BRANCH   3  22
ATOM     22  C   LIG d   1     -22.203  86.971 121.347  0.00  0.00     0.382 C 
ATOM     23  O   LIG d   1     -23.080  87.867 121.303  0.00  0.00    -0.241 OA
ATOM     24  O   LIG d   1     -22.549  85.776 121.401  0.00  0.00    -0.241 OA
ENDBRANCH   3  22
TORSDOF 7
ENDMDL
