MODEL 1
REMARK VINA RESULT:      -6.2      0.000      0.000
REMARK  7 active torsions:
REMARK  status: ('A' for Active; 'I' for Inactive)
REMARK    1  A    between atoms: C_2  and  C_3 
REMARK    2  A    between atoms: C_3  and  O_6 
REMARK    3  A    between atoms: C_3  and  C_4 
REMARK    4  A    between atoms: C_7  and  O_6 
REMARK    5  A    between atoms: C_9  and  C_10 
REMARK    6  A    between atoms: N_15  and  C_14 
REMARK    7  A    between atoms: N_20  and  C_19 
REMARK       I    between atoms: C_22  and  N_20 
ROOT
ATOM      1  C   LIG d   1       2.398  84.306 109.995  0.00  0.00     0.161 C 
ATOM      2  C   LIG d   1       1.419  85.287 110.225  0.00  0.00     0.016 C 
ATOM      3  C   LIG d   1       0.105  84.990 110.652  0.00  0.00     0.038 C 
ATOM      4  C   LIG d   1      -0.278  83.694 111.027  0.00  0.00     0.028 C 
ATOM      5  C   LIG d   1       0.525  82.600 110.331  0.00  0.00    -0.047 C 
ATOM      6  C   LIG d   1       2.032  82.896 110.505  0.00  0.00     0.091 C 
ENDROOT
BRANCH   1   7
ATOM      7  O   LIG d   1       3.656  84.730 110.554  0.00  0.00    -0.368 OA
BRANCH   7   8
ATOM      8  C   LIG d   1       3.579  85.603 111.708  0.00  0.00     0.119 C 
BRANCH   8   9
ATOM      9  C   LIG d   1       4.681  86.669 111.557  0.00  0.00     0.028 C 
ATOM     10  C   LIG d   1       5.007  87.370 112.887  0.00  0.00     0.006 C 
ENDBRANCH   8   9
BRANCH   8  11
ATOM     11  C   LIG d   1       3.916  84.851 112.999  0.00  0.00     0.028 C 
ATOM     12  C   LIG d   1       2.666  84.438 113.792  0.00  0.00     0.006 C 
ENDBRANCH   8  11
ENDBRANCH   7   8
ENDBRANCH   1   7
BRANCH   6  13
ATOM     13  N   LIG d   1       2.889  81.920 109.782  0.00  0.00    -0.311 N 
ATOM     14  C   LIG d   1       4.031  81.443 110.273  0.00  0.00     0.210 C 
ATOM     15  C   LIG d   1       4.769  80.462 109.357  0.00  0.00     0.109 C 
ATOM     16  O   LIG d   1       4.487  81.714 111.394  0.00  0.00    -0.276 OA
ATOM     17  H   LIG d   1       2.578  81.622 108.879  0.00  0.00     0.149 HD
ENDBRANCH   6  13
BRANCH   5  18
ATOM     18  N   LIG d   1       0.118  81.308 110.915  0.00  0.00     0.381 N 
ATOM     19  H   LIG d   1      -0.863  81.319 111.111  0.00  0.00    -0.090 HD
ATOM     20  H   LIG d   1       0.611  81.173 111.781  0.00  0.00    -0.090 HD
ATOM     21  H   LIG d   1       0.331  80.567 110.285  0.00  0.00    -0.090 HD
ENDBRANCH   5  18
BRANCH   3  22
ATOM     22  C   LIG d   1      -0.855  85.991 110.670  0.00  0.00     0.382 C 
ATOM     23  O   LIG d   1      -1.221  86.489 111.762  0.00  0.00    -0.241 OA
ATOM     24  O   LIG d   1      -1.391  86.372 109.612  0.00  0.00    -0.241 OA
ENDBRANCH   3  22
TORSDOF 7
ENDMDL
MODEL 2
REMARK VINA RESULT:      -6.1      2.691      4.520
REMARK  7 active torsions:
REMARK  status: ('A' for Active; 'I' for Inactive)
REMARK    1  A    between atoms: C_2  and  C_3 
REMARK    2  A    between atoms: C_3  and  O_6 
REMARK    3  A    between atoms: C_3  and  C_4 
REMARK    4  A    between atoms: C_7  and  O_6 
REMARK    5  A    between atoms: C_9  and  C_10 
REMARK    6  A    between atoms: N_15  and  C_14 
REMARK    7  A    between atoms: N_20  and  C_19 
REMARK       I    between atoms: C_22  and  N_20 
ROOT
ATOM      1  C   LIG d   1       2.137  83.479 111.447  0.00  0.00     0.161 C 
ATOM      2  C   LIG d   1       1.111  82.527 111.325  0.00  0.00     0.016 C 
ATOM      3  C   LIG d   1      -0.241  82.796 111.638  0.00  0.00     0.038 C 
ATOM      4  C   LIG d   1      -0.686  84.089 111.952  0.00  0.00     0.028 C 
ATOM      5  C   LIG d   1       0.393  84.967 112.575  0.00  0.00    -0.047 C 
ATOM      6  C   LIG d   1       1.653  84.925 111.680  0.00  0.00     0.091 C 
ENDROOT
BRANCH   1   7
ATOM      7  O   LIG d   1       2.998  83.419 110.292  0.00  0.00    -0.368 OA
BRANCH   7   8
ATOM      8  C   LIG d   1       4.360  82.987 110.534  0.00  0.00     0.119 C 
BRANCH   8   9
ATOM      9  C   LIG d   1       4.812  82.172 109.306  0.00  0.00     0.028 C 
ATOM     10  C   LIG d   1       4.815  80.658 109.575  0.00  0.00     0.006 C 
ENDBRANCH   8   9
BRANCH   8  11
ATOM     11  C   LIG d   1       4.434  82.015 111.715  0.00  0.00     0.028 C 
ATOM     12  C   LIG d   1       5.142  82.618 112.939  0.00  0.00     0.006 C 
ENDBRANCH   8  11
ENDBRANCH   7   8
ENDBRANCH   1   7
BRANCH   6  13
ATOM     13  N   LIG d   1       2.787  85.691 112.261  0.00  0.00    -0.311 N 
ATOM     14  C   LIG d   1       3.076  86.945 111.920  0.00  0.00     0.210 C 
ATOM     15  C   LIG d   1       4.299  87.542 112.624  0.00  0.00     0.109 C 
ATOM     16  O   LIG d   1       2.417  87.631 111.125  0.00  0.00    -0.276 OA
ATOM     17  H   LIG d   1       3.356  85.220 112.938  0.00  0.00     0.149 HD
ENDBRANCH   6  13
BRANCH   5  18
ATOM     18  N   LIG d   1      -0.166  86.324 112.723  0.00  0.00     0.381 N 
ATOM     19  H   LIG d   1      -0.752  86.362 113.533  0.00  0.00    -0.090 HD
ATOM     20  H   LIG d   1      -0.728  86.533 111.917  0.00  0.00    -0.090 HD
ATOM     21  H   LIG d   1       0.571  86.989 112.806  0.00  0.00    -0.090 HD
ENDBRANCH   5  18
BRANCH   3  22
ATOM     22  C   LIG d   1      -1.157  81.756 111.678  0.00  0.00     0.382 C 
ATOM     23  O   LIG d   1      -2.339  81.975 112.039  0.00  0.00    -0.241 OA
ATOM     24  O   LIG d   1      -0.806  80.594 111.400  0.00  0.00    -0.241 OA
ENDBRANCH   3  22
TORSDOF 7
ENDMDL
MODEL 3
REMARK VINA RESULT:      -5.7      2.946      5.269
REMARK  7 active torsions:
REMARK  status: ('A' for Active; 'I' for Inactive)
REMARK    1  A    between atoms: C_2  and  C_3 
REMARK    2  A    between atoms: C_3  and  O_6 
REMARK    3  A    between atoms: C_3  and  C_4 
REMARK    4  A    between atoms: C_7  and  O_6 
REMARK    5  A    between atoms: C_9  and  C_10 
REMARK    6  A    between atoms: N_15  and  C_14 
REMARK    7  A    between atoms: N_20  and  C_19 
REMARK       I    between atoms: C_22  and  N_20 
ROOT
ATOM      1  C   LIG d   1       3.064  85.731 111.856  0.00  0.00     0.161 C 
ATOM      2  C   LIG d   1       4.083  86.685 112.012  0.00  0.00     0.016 C 
ATOM      3  C   LIG d   1       4.057  87.697 113.000  0.00  0.00     0.038 C 
ATOM      4  C   LIG d   1       3.075  87.730 114.001  0.00  0.00     0.028 C 
ATOM      5  C   LIG d   1       1.756  87.093 113.578  0.00  0.00    -0.047 C 
ATOM      6  C   LIG d   1       2.040  85.684 113.009  0.00  0.00     0.091 C 
ENDROOT
BRANCH   1   7
ATOM      7  O   LIG d   1       3.642  84.428 111.645  0.00  0.00    -0.368 OA
BRANCH   7   8
ATOM      8  C   LIG d   1       3.777  84.006 110.266  0.00  0.00     0.119 C 
BRANCH   8   9
ATOM      9  C   LIG d   1       2.474  84.386 109.536  0.00  0.00     0.028 C 
ATOM     10  C   LIG d   1       1.556  83.174 109.306  0.00  0.00     0.006 C 
ENDBRANCH   8   9
BRANCH   8  11
ATOM     11  C   LIG d   1       3.873  82.481 110.157  0.00  0.00     0.028 C 
ATOM     12  C   LIG d   1       5.308  81.991 109.902  0.00  0.00     0.006 C 
ENDBRANCH   8  11
ENDBRANCH   7   8
ENDBRANCH   1   7
BRANCH   6  13
ATOM     13  N   LIG d   1       0.812  85.023 112.493  0.00  0.00    -0.311 N 
ATOM     14  C   LIG d   1       0.533  83.737 112.695  0.00  0.00     0.210 C 
ATOM     15  C   LIG d   1      -0.775  83.252 112.060  0.00  0.00     0.109 C 
ATOM     16  O   LIG d   1       1.227  82.959 113.366  0.00  0.00    -0.276 OA
ATOM     17  H   LIG d   1       0.178  85.589 111.964  0.00  0.00     0.149 HD
ENDBRANCH   6  13
BRANCH   5  18
ATOM     18  N   LIG d   1       0.872  87.073 114.758  0.00  0.00     0.381 N 
ATOM     19  H   LIG d   1      -0.074  86.923 114.470  0.00  0.00    -0.090 HD
ATOM     20  H   LIG d   1       0.924  87.964 115.218  0.00  0.00    -0.090 HD
ATOM     21  H   LIG d   1       1.154  86.351 115.384  0.00  0.00    -0.090 HD
ENDBRANCH   5  18
BRANCH   3  22
ATOM     22  C   LIG d   1       5.000  88.713 112.967  0.00  0.00     0.382 C 
ATOM     23  O   LIG d   1       4.644  89.904 113.141  0.00  0.00    -0.241 OA
ATOM     24  O   LIG d   1       6.194  88.460 112.722  0.00  0.00    -0.241 OA
ENDBRANCH   3  22
TORSDOF 7
ENDMDL
MODEL 4
REMARK VINA RESULT:      -5.7      8.552     10.287
REMARK  7 active torsions:
REMARK  status: ('A' for Active; 'I' for Inactive)
REMARK    1  A    between atoms: C_2  and  C_3 
REMARK    2  A    between atoms: C_3  and  O_6 
REMARK    3  A    between atoms: C_3  and  C_4 
REMARK    4  A    between atoms: C_7  and  O_6 
REMARK    5  A    between atoms: C_9  and  C_10 
REMARK    6  A    between atoms: N_15  and  C_14 
REMARK    7  A    between atoms: N_20  and  C_19 
REMARK       I    between atoms: C_22  and  N_20 
ROOT
ATOM      1  C   LIG d   1      -2.357  77.556 115.793  0.00  0.00     0.161 C 
ATOM      2  C   LIG d   1      -2.779  78.281 114.667  0.00  0.00     0.016 C 
ATOM      3  C   LIG d   1      -2.047  78.338 113.459  0.00  0.00     0.038 C 
ATOM      4  C   LIG d   1      -0.910  77.545 113.243  0.00  0.00     0.028 C 
ATOM      5  C   LIG d   1      -0.169  77.186 114.526  0.00  0.00    -0.047 C 
ATOM      6  C   LIG d   1      -1.177  76.595 115.539  0.00  0.00     0.091 C 
ENDROOT
BRANCH   1   7
ATOM      7  O   LIG d   1      -3.473  76.840 116.359  0.00  0.00    -0.368 OA
BRANCH   7   8
ATOM      8  C   LIG d   1      -4.755  77.049 115.719  0.00  0.00     0.119 C 
BRANCH   8   9
ATOM      9  C   LIG d   1      -5.730  77.567 116.794  0.00  0.00     0.028 C 
ATOM     10  C   LIG d   1      -5.468  79.037 117.165  0.00  0.00     0.006 C 
ENDBRANCH   8   9
BRANCH   8  11
ATOM     11  C   LIG d   1      -5.356  75.728 115.230  0.00  0.00     0.028 C 
ATOM     12  C   LIG d   1      -6.819  75.870 114.779  0.00  0.00     0.006 C 
ENDBRANCH   8  11
ENDBRANCH   7   8
ENDBRANCH   1   7
BRANCH   6  13
ATOM     13  N   LIG d   1      -0.550  76.295 116.853  0.00  0.00    -0.311 N 
ATOM     14  C   LIG d   1      -0.397  75.060 117.327  0.00  0.00     0.210 C 
ATOM     15  C   LIG d   1       0.255  74.975 118.710  0.00  0.00     0.109 C 
ATOM     16  O   LIG d   1      -0.711  74.025 116.719  0.00  0.00    -0.276 OA
ATOM     17  H   LIG d   1      -0.238  77.075 117.398  0.00  0.00     0.149 HD
ENDBRANCH   6  13
BRANCH   5  18
ATOM     18  N   LIG d   1       0.911  76.246 114.170  0.00  0.00     0.381 N 
ATOM     19  H   LIG d   1       1.800  76.666 114.356  0.00  0.00    -0.090 HD
ATOM     20  H   LIG d   1       0.856  76.046 113.186  0.00  0.00    -0.090 HD
ATOM     21  H   LIG d   1       0.816  75.404 114.693  0.00  0.00    -0.090 HD
ENDBRANCH   5  18
BRANCH   3  22
ATOM     22  C   LIG d   1      -2.429  79.226 112.465  0.00  0.00     0.382 C 
ATOM     23  O   LIG d   1      -3.116  80.235 112.755  0.00  0.00    -0.241 OA
ATOM     24  O   LIG d   1      -2.132  79.008 111.275  0.00  0.00    -0.241 OA
ENDBRANCH   3  22
TORSDOF 7
ENDMDL
MODEL 5
REMARK VINA RESULT:      -5.6      2.466      3.981
REMARK  7 active torsions:
REMARK  status: ('A' for Active; 'I' for Inactive)
REMARK    1  A    between atoms: C_2  and  C_3 
REMARK    2  A    between atoms: C_3  and  O_6 
REMARK    3  A    between atoms: C_3  and  C_4 
REMARK    4  A    between atoms: C_7  and  O_6 
REMARK    5  A    between atoms: C_9  and  C_10 
REMARK    6  A    between atoms: N_15  and  C_14 
REMARK    7  A    between atoms: N_20  and  C_19 
REMARK       I    between atoms: C_22  and  N_20 
ROOT
ATOM      1  C   LIG d   1       3.155  84.205 111.570  0.00  0.00     0.161 C 
ATOM      2  C   LIG d   1       3.601  85.429 112.094  0.00  0.00     0.016 C 
ATOM      3  C   LIG d   1       2.938  86.658 111.872  0.00  0.00     0.038 C 
ATOM      4  C   LIG d   1       1.692  86.724 111.232  0.00  0.00     0.028 C 
ATOM      5  C   LIG d   1       1.455  85.582 110.249  0.00  0.00    -0.047 C 
ATOM      6  C   LIG d   1       1.737  84.240 110.962  0.00  0.00     0.091 C 
ENDROOT
BRANCH   1   7
ATOM      7  O   LIG d   1       3.242  83.180 112.580  0.00  0.00    -0.368 OA
BRANCH   7   8
ATOM      8  C   LIG d   1       4.160  82.093 112.307  0.00  0.00     0.119 C 
BRANCH   8   9
ATOM      9  C   LIG d   1       5.206  82.075 113.438  0.00  0.00     0.028 C 
ATOM     10  C   LIG d   1       4.794  82.952 114.633  0.00  0.00     0.006 C 
ENDBRANCH   8   9
BRANCH   8  11
ATOM     11  C   LIG d   1       4.956  82.344 111.022  0.00  0.00     0.028 C 
ATOM     12  C   LIG d   1       4.802  81.212 109.995  0.00  0.00     0.006 C 
ENDBRANCH   8  11
ENDBRANCH   7   8
ENDBRANCH   1   7
BRANCH   6  13
ATOM     13  N   LIG d   1       1.611  83.075 110.048  0.00  0.00    -0.311 N 
ATOM     14  C   LIG d   1       1.013  81.935 110.391  0.00  0.00     0.210 C 
ATOM     15  C   LIG d   1       1.010  80.854 109.305  0.00  0.00     0.109 C 
ATOM     16  O   LIG d   1       0.455  81.729 111.479  0.00  0.00    -0.276 OA
ATOM     17  H   LIG d   1       2.008  83.167 109.133  0.00  0.00     0.149 HD
ENDBRANCH   6  13
BRANCH   5  18
ATOM     18  N   LIG d   1       0.069  85.696 109.759  0.00  0.00     0.381 N 
ATOM     19  H   LIG d   1      -0.063  85.092 108.972  0.00  0.00    -0.090 HD
ATOM     20  H   LIG d   1      -0.094  86.642 109.461  0.00  0.00    -0.090 HD
ATOM     21  H   LIG d   1      -0.570  85.453 110.483  0.00  0.00    -0.090 HD
ENDBRANCH   5  18
BRANCH   3  22
ATOM     22  C   LIG d   1       3.543  87.845 112.259  0.00  0.00     0.382 C 
ATOM     23  O   LIG d   1       4.794  87.934 112.277  0.00  0.00    -0.241 OA
ATOM     24  O   LIG d   1       2.854  88.813 112.632  0.00  0.00    -0.241 OA
ENDBRANCH   3  22
TORSDOF 7
ENDMDL
MODEL 6
REMARK VINA RESULT:      -5.6      8.871     11.122
REMARK  7 active torsions:
REMARK  status: ('A' for Active; 'I' for Inactive)
REMARK    1  A    between atoms: C_2  and  C_3 
REMARK    2  A    between atoms: C_3  and  O_6 
REMARK    3  A    between atoms: C_3  and  C_4 
REMARK    4  A    between atoms: C_7  and  O_6 
REMARK    5  A    between atoms: C_9  and  C_10 
REMARK    6  A    between atoms: N_15  and  C_14 
REMARK    7  A    between atoms: N_20  and  C_19 
REMARK       I    between atoms: C_22  and  N_20 
ROOT
ATOM      1  C   LIG d   1      -2.798  76.723 114.757  0.00  0.00     0.161 C 
ATOM      2  C   LIG d   1      -2.547  75.785 115.772  0.00  0.00     0.016 C 
ATOM      3  C   LIG d   1      -1.441  75.865 116.649  0.00  0.00     0.038 C 
ATOM      4  C   LIG d   1      -0.589  76.980 116.668  0.00  0.00     0.028 C 
ATOM      5  C   LIG d   1      -0.509  77.704 115.329  0.00  0.00    -0.047 C 
ATOM      6  C   LIG d   1      -1.943  78.005 114.835  0.00  0.00     0.091 C 
ENDROOT
BRANCH   1   7
ATOM      7  O   LIG d   1      -4.200  77.057 114.737  0.00  0.00    -0.368 OA
BRANCH   7   8
ATOM      8  C   LIG d   1      -5.018  76.438 115.761  0.00  0.00     0.119 C 
BRANCH   8   9
ATOM      9  C   LIG d   1      -6.130  75.645 115.048  0.00  0.00     0.028 C 
ATOM     10  C   LIG d   1      -7.467  75.697 115.806  0.00  0.00     0.006 C 
ENDBRANCH   8   9
BRANCH   8  11
ATOM     11  C   LIG d   1      -5.746  77.488 116.604  0.00  0.00     0.028 C 
ATOM     12  C   LIG d   1      -4.783  78.408 117.372  0.00  0.00     0.006 C 
ENDBRANCH   8  11
ENDBRANCH   7   8
ENDBRANCH   1   7
BRANCH   6  13
ATOM     13  N   LIG d   1      -1.958  78.638 113.490  0.00  0.00    -0.311 N 
ATOM     14  C   LIG d   1      -1.455  78.059 112.402  0.00  0.00     0.210 C 
ATOM     15  C   LIG d   1      -1.555  78.892 111.120  0.00  0.00     0.109 C 
ATOM     16  O   LIG d   1      -0.965  76.920 112.369  0.00  0.00    -0.276 OA
ATOM     17  H   LIG d   1      -2.365  79.550 113.420  0.00  0.00     0.149 HD
ENDBRANCH   6  13
BRANCH   5  18
ATOM     18  N   LIG d   1       0.301  78.921 115.528  0.00  0.00     0.381 N 
ATOM     19  H   LIG d   1       0.662  79.235 114.649  0.00  0.00    -0.090 HD
ATOM     20  H   LIG d   1       1.077  78.700 116.126  0.00  0.00    -0.090 HD
ATOM     21  H   LIG d   1      -0.254  79.637 115.942  0.00  0.00    -0.090 HD
ENDBRANCH   5  18
BRANCH   3  22
ATOM     22  C   LIG d   1      -1.154  74.803 117.493  0.00  0.00     0.382 C 
ATOM     23  O   LIG d   1      -2.071  74.028 117.858  0.00  0.00    -0.241 OA
ATOM     24  O   LIG d   1      -0.000  74.637 117.931  0.00  0.00    -0.241 OA
ENDBRANCH   3  22
TORSDOF 7
ENDMDL
MODEL 7
REMARK VINA RESULT:      -5.5      2.784      4.527
REMARK  7 active torsions:
REMARK  status: ('A' for Active; 'I' for Inactive)
REMARK    1  A    between atoms: C_2  and  C_3 
REMARK    2  A    between atoms: C_3  and  O_6 
REMARK    3  A    between atoms: C_3  and  C_4 
REMARK    4  A    between atoms: C_7  and  O_6 
REMARK    5  A    between atoms: C_9  and  C_10 
REMARK    6  A    between atoms: N_15  and  C_14 
REMARK    7  A    between atoms: N_20  and  C_19 
REMARK       I    between atoms: C_22  and  N_20 
ROOT
ATOM      1  C   LIG d   1       2.308  84.546 113.150  0.00  0.00     0.161 C 
ATOM      2  C   LIG d   1       1.396  83.525 112.833  0.00  0.00     0.016 C 
ATOM      3  C   LIG d   1       0.573  83.546 111.684  0.00  0.00     0.038 C 
ATOM      4  C   LIG d   1       0.716  84.523 110.687  0.00  0.00     0.028 C 
ATOM      5  C   LIG d   1       1.269  85.844 111.210  0.00  0.00    -0.047 C 
ATOM      6  C   LIG d   1       2.557  85.565 112.018  0.00  0.00     0.091 C 
ENDROOT
BRANCH   1   7
ATOM      7  O   LIG d   1       3.554  83.969 113.589  0.00  0.00    -0.368 OA
BRANCH   7   8
ATOM      8  C   LIG d   1       3.939  82.725 112.953  0.00  0.00     0.119 C 
BRANCH   8   9
ATOM      9  C   LIG d   1       4.776  81.926 113.971  0.00  0.00     0.028 C 
ATOM     10  C   LIG d   1       5.151  82.760 115.207  0.00  0.00     0.006 C 
ENDBRANCH   8   9
BRANCH   8  11
ATOM     11  C   LIG d   1       4.873  82.972 111.765  0.00  0.00     0.028 C 
ATOM     12  C   LIG d   1       4.254  82.552 110.423  0.00  0.00     0.006 C 
ENDBRANCH   8  11
ENDBRANCH   7   8
ENDBRANCH   1   7
BRANCH   6  13
ATOM     13  N   LIG d   1       3.117  86.795 112.636  0.00  0.00    -0.311 N 
ATOM     14  C   LIG d   1       4.332  87.266 112.360  0.00  0.00     0.210 C 
ATOM     15  C   LIG d   1       4.721  88.537 113.122  0.00  0.00     0.109 C 
ATOM     16  O   LIG d   1       5.112  86.770 111.533  0.00  0.00    -0.276 OA
ATOM     17  H   LIG d   1       2.539  87.278 113.296  0.00  0.00     0.149 HD
ENDBRANCH   6  13
BRANCH   5  18
ATOM     18  N   LIG d   1       1.496  86.723 110.047  0.00  0.00     0.381 N 
ATOM     19  H   LIG d   1       2.122  86.280 109.405  0.00  0.00    -0.090 HD
ATOM     20  H   LIG d   1       1.921  87.577 110.363  0.00  0.00    -0.090 HD
ATOM     21  H   LIG d   1       0.631  86.922 109.595  0.00  0.00    -0.090 HD
ENDBRANCH   5  18
BRANCH   3  22
ATOM     22  C   LIG d   1      -0.433  82.603 111.542  0.00  0.00     0.382 C 
ATOM     23  O   LIG d   1      -0.255  81.602 110.807  0.00  0.00    -0.241 OA
ATOM     24  O   LIG d   1      -1.533  82.762 112.105  0.00  0.00    -0.241 OA
ENDBRANCH   3  22
TORSDOF 7
ENDMDL
MODEL 8
REMARK VINA RESULT:      -5.5      2.776      5.485
REMARK  7 active torsions:
REMARK  status: ('A' for Active; 'I' for Inactive)
REMARK    1  A    between atoms: C_2  and  C_3 
REMARK    2  A    between atoms: C_3  and  O_6 
REMARK    3  A    between atoms: C_3  and  C_4 
REMARK    4  A    between atoms: C_7  and  O_6 
REMARK    5  A    between atoms: C_9  and  C_10 
REMARK    6  A    between atoms: N_15  and  C_14 
REMARK    7  A    between atoms: N_20  and  C_19 
REMARK       I    between atoms: C_22  and  N_20 
ROOT
ATOM      1  C   LIG d   1       3.257  86.296 111.420  0.00  0.00     0.161 C 
ATOM      2  C   LIG d   1       4.287  86.403 112.369  0.00  0.00     0.016 C 
ATOM      3  C   LIG d   1       4.056  86.503 113.761  0.00  0.00     0.038 C 
ATOM      4  C   LIG d   1       2.776  86.349 114.313  0.00  0.00     0.028 C 
ATOM      5  C   LIG d   1       1.654  86.745 113.359  0.00  0.00    -0.047 C 
ATOM      6  C   LIG d   1       1.859  86.015 112.012  0.00  0.00     0.091 C 
ENDROOT
BRANCH   1   7
ATOM      7  O   LIG d   1       3.597  85.295 110.441  0.00  0.00    -0.368 OA
BRANCH   7   8
ATOM      8  C   LIG d   1       3.135  83.950 110.717  0.00  0.00     0.119 C 
BRANCH   8   9
ATOM      9  C   LIG d   1       4.379  83.077 110.974  0.00  0.00     0.028 C 
ATOM     10  C   LIG d   1       4.837  82.324 109.714  0.00  0.00     0.006 C 
ENDBRANCH   8   9
BRANCH   8  11
ATOM     11  C   LIG d   1       2.452  83.333 109.493  0.00  0.00     0.028 C 
ATOM     12  C   LIG d   1       1.158  82.583 109.848  0.00  0.00     0.006 C 
ENDBRANCH   8  11
ENDBRANCH   7   8
ENDBRANCH   1   7
BRANCH   6  13
ATOM     13  N   LIG d   1       0.852  86.411 110.993  0.00  0.00    -0.311 N 
ATOM     14  C   LIG d   1      -0.338  85.825 110.873  0.00  0.00     0.210 C 
ATOM     15  C   LIG d   1      -1.217  86.373 109.744  0.00  0.00     0.109 C 
ATOM     16  O   LIG d   1      -0.761  84.925 111.614  0.00  0.00    -0.276 OA
ATOM     17  H   LIG d   1       1.101  87.154 110.370  0.00  0.00     0.149 HD
ENDBRANCH   6  13
BRANCH   5  18
ATOM     18  N   LIG d   1       0.374  86.405 114.011  0.00  0.00     0.381 N 
ATOM     19  H   LIG d   1       0.275  86.931 114.856  0.00  0.00    -0.090 HD
ATOM     20  H   LIG d   1       0.379  85.428 114.246  0.00  0.00    -0.090 HD
ATOM     21  H   LIG d   1      -0.384  86.603 113.396  0.00  0.00    -0.090 HD
ENDBRANCH   5  18
BRANCH   3  22
ATOM     22  C   LIG d   1       5.109  86.798 114.613  0.00  0.00     0.382 C 
ATOM     23  O   LIG d   1       5.259  86.146 115.674  0.00  0.00    -0.241 OA
ATOM     24  O   LIG d   1       5.885  87.738 114.355  0.00  0.00    -0.241 OA
ENDBRANCH   3  22
TORSDOF 7
ENDMDL
MODEL 9
REMARK VINA RESULT:      -5.3     10.714     12.281
REMARK  7 active torsions:
REMARK  status: ('A' for Active; 'I' for Inactive)
REMARK    1  A    between atoms: C_2  and  C_3 
REMARK    2  A    between atoms: C_3  and  O_6 
REMARK    3  A    between atoms: C_3  and  C_4 
REMARK    4  A    between atoms: C_7  and  O_6 
REMARK    5  A    between atoms: C_9  and  C_10 
REMARK    6  A    between atoms: N_15  and  C_14 
REMARK    7  A    between atoms: N_20  and  C_19 
REMARK       I    between atoms: C_22  and  N_20 
ROOT
ATOM      1  C   LIG d   1      -6.066  78.309 117.367  0.00  0.00     0.161 C 
ATOM      2  C   LIG d   1      -7.288  78.997 117.281  0.00  0.00     0.016 C 
ATOM      3  C   LIG d   1      -7.525  80.244 117.904  0.00  0.00     0.038 C 
ATOM      4  C   LIG d   1      -6.499  80.964 118.534  0.00  0.00     0.028 C 
ATOM      5  C   LIG d   1      -5.384  80.079 119.080  0.00  0.00    -0.047 C 
ATOM      6  C   LIG d   1      -4.902  79.131 117.958  0.00  0.00     0.091 C 
ENDROOT
BRANCH   1   7
ATOM      7  O   LIG d   1      -5.707  77.788 116.073  0.00  0.00    -0.368 OA
BRANCH   7   8
ATOM      8  C   LIG d   1      -5.739  76.346 115.934  0.00  0.00     0.119 C 
BRANCH   8   9
ATOM      9  C   LIG d   1      -4.603  75.948 114.972  0.00  0.00     0.028 C 
ATOM     10  C   LIG d   1      -3.526  75.090 115.659  0.00  0.00     0.006 C 
ENDBRANCH   8   9
BRANCH   8  11
ATOM     11  C   LIG d   1      -7.029  75.881 115.253  0.00  0.00     0.028 C 
ATOM     12  C   LIG d   1      -8.138  75.526 116.255  0.00  0.00     0.006 C 
ENDBRANCH   8  11
ENDBRANCH   7   8
ENDBRANCH   1   7
BRANCH   6  13
ATOM     13  N   LIG d   1      -3.869  78.173 118.430  0.00  0.00    -0.311 N 
ATOM     14  C   LIG d   1      -2.719  77.961 117.792  0.00  0.00     0.210 C 
ATOM     15  C   LIG d   1      -1.804  76.916 118.438  0.00  0.00     0.109 C 
ATOM     16  O   LIG d   1      -2.356  78.562 116.770  0.00  0.00    -0.276 OA
ATOM     17  H   LIG d   1      -4.068  77.664 119.269  0.00  0.00     0.149 HD
ENDBRANCH   6  13
BRANCH   5  18
ATOM     18  N   LIG d   1      -4.319  80.964 119.586  0.00  0.00     0.381 N 
ATOM     19  H   LIG d   1      -4.725  81.746 120.061  0.00  0.00    -0.090 HD
ATOM     20  H   LIG d   1      -3.787  81.311 118.807  0.00  0.00    -0.090 HD
ATOM     21  H   LIG d   1      -3.723  80.462 120.207  0.00  0.00    -0.090 HD
ENDBRANCH   5  18
BRANCH   3  22
ATOM     22  C   LIG d   1      -8.810  80.764 117.934  0.00  0.00     0.382 C 
ATOM     23  O   LIG d   1      -8.999  81.946 118.310  0.00  0.00    -0.241 OA
ATOM     24  O   LIG d   1      -9.787  80.052 117.633  0.00  0.00    -0.241 OA
ENDBRANCH   3  22
TORSDOF 7
ENDMDL
