MODEL 1
REMARK VINA RESULT:      -6.0      0.000      0.000
REMARK  7 active torsions:
REMARK  status: ('A' for Active; 'I' for Inactive)
REMARK    1  A    between atoms: C_2  and  C_3 
REMARK    2  A    between atoms: C_3  and  O_6 
REMARK    3  A    between atoms: C_3  and  C_4 
REMARK    4  A    between atoms: C_7  and  O_6 
REMARK    5  A    between atoms: C_9  and  C_10 
REMARK    6  A    between atoms: N_15  and  C_14 
REMARK    7  A    between atoms: N_20  and  C_19 
REMARK       I    between atoms: C_22  and  N_20 
ROOT
ATOM      1  C   LIG d   1      -8.344  75.633 118.414  0.00  0.00     0.161 C 
ATOM      2  C   LIG d   1      -9.637  75.898 118.895  0.00  0.00     0.016 C 
ATOM      3  C   LIG d   1     -10.147  77.204 119.076  0.00  0.00     0.038 C 
ATOM      4  C   LIG d   1      -9.448  78.340 118.643  0.00  0.00     0.028 C 
ATOM      5  C   LIG d   1      -7.935  78.147 118.618  0.00  0.00    -0.047 C 
ATOM      6  C   LIG d   1      -7.607  76.858 117.832  0.00  0.00     0.091 C 
ENDROOT
BRANCH   1   7
ATOM      7  O   LIG d   1      -8.392  74.569 117.443  0.00  0.00    -0.368 OA
BRANCH   7   8
ATOM      8  C   LIG d   1      -8.515  73.227 117.974  0.00  0.00     0.119 C 
BRANCH   8   9
ATOM      9  C   LIG d   1      -7.356  72.392 117.396  0.00  0.00     0.028 C 
ATOM     10  C   LIG d   1      -6.577  73.146 116.305  0.00  0.00     0.006 C 
ENDBRANCH   8   9
BRANCH   8  11
ATOM     11  C   LIG d   1      -9.793  72.546 117.477  0.00  0.00     0.028 C 
ATOM     12  C   LIG d   1      -9.753  71.017 117.633  0.00  0.00     0.006 C 
ENDBRANCH   8  11
ENDBRANCH   7   8
ENDBRANCH   1   7
BRANCH   6  13
ATOM     13  N   LIG d   1      -6.153  76.549 117.831  0.00  0.00    -0.311 N 
ATOM     14  C   LIG d   1      -5.375  76.685 116.759  0.00  0.00     0.210 C 
ATOM     15  C   LIG d   1      -3.909  76.292 116.969  0.00  0.00     0.109 C 
ATOM     16  O   LIG d   1      -5.753  77.123 115.662  0.00  0.00    -0.276 OA
ATOM     17  H   LIG d   1      -5.757  76.217 118.689  0.00  0.00     0.149 HD
ENDBRANCH   6  13
BRANCH   5  18
ATOM     18  N   LIG d   1      -7.341  79.357 118.018  0.00  0.00     0.381 N 
ATOM     19  H   LIG d   1      -7.694  79.484 117.091  0.00  0.00    -0.090 HD
ATOM     20  H   LIG d   1      -6.345  79.237 117.963  0.00  0.00    -0.090 HD
ATOM     21  H   LIG d   1      -7.557  80.155 118.575  0.00  0.00    -0.090 HD
ENDBRANCH   5  18
BRANCH   3  22
ATOM     22  C   LIG d   1     -11.355  77.385 119.733  0.00  0.00     0.382 C 
ATOM     23  O   LIG d   1     -12.393  76.829 119.301  0.00  0.00    -0.241 OA
ATOM     24  O   LIG d   1     -11.428  78.133 120.726  0.00  0.00    -0.241 OA
ENDBRANCH   3  22
TORSDOF 7
ENDMDL
MODEL 2
REMARK VINA RESULT:      -5.8      2.016      5.320
REMARK  7 active torsions:
REMARK  status: ('A' for Active; 'I' for Inactive)
REMARK    1  A    between atoms: C_2  and  C_3 
REMARK    2  A    between atoms: C_3  and  O_6 
REMARK    3  A    between atoms: C_3  and  C_4 
REMARK    4  A    between atoms: C_7  and  O_6 
REMARK    5  A    between atoms: C_9  and  C_10 
REMARK    6  A    between atoms: N_15  and  C_14 
REMARK    7  A    between atoms: N_20  and  C_19 
REMARK       I    between atoms: C_22  and  N_20 
ROOT
ATOM      1  C   LIG d   1      -6.687  74.835 117.178  0.00  0.00     0.161 C 
ATOM      2  C   LIG d   1      -5.459  74.451 116.615  0.00  0.00     0.016 C 
ATOM      3  C   LIG d   1      -4.257  75.170 116.807  0.00  0.00     0.038 C 
ATOM      4  C   LIG d   1      -4.171  76.245 117.704  0.00  0.00     0.028 C 
ATOM      5  C   LIG d   1      -5.495  76.975 117.903  0.00  0.00    -0.047 C 
ATOM      6  C   LIG d   1      -6.591  75.941 118.249  0.00  0.00     0.091 C 
ENDROOT
BRANCH   1   7
ATOM      7  O   LIG d   1      -7.363  73.678 117.711  0.00  0.00    -0.368 OA
BRANCH   7   8
ATOM      8  C   LIG d   1      -8.362  73.072 116.855  0.00  0.00     0.119 C 
BRANCH   8   9
ATOM      9  C   LIG d   1      -9.745  73.463 117.409  0.00  0.00     0.028 C 
ATOM     10  C   LIG d   1     -10.397  74.603 116.608  0.00  0.00     0.006 C 
ENDBRANCH   8   9
BRANCH   8  11
ATOM     11  C   LIG d   1      -8.310  71.543 116.934  0.00  0.00     0.028 C 
ATOM     12  C   LIG d   1      -9.687  70.914 117.201  0.00  0.00     0.006 C 
ENDBRANCH   8  11
ENDBRANCH   7   8
ENDBRANCH   1   7
BRANCH   6  13
ATOM     13  N   LIG d   1      -7.935  76.561 118.378  0.00  0.00    -0.311 N 
ATOM     14  C   LIG d   1      -8.702  76.432 119.459  0.00  0.00     0.210 C 
ATOM     15  C   LIG d   1     -10.060  77.135 119.377  0.00  0.00     0.109 C 
ATOM     16  O   LIG d   1      -8.373  75.828 120.492  0.00  0.00    -0.276 OA
ATOM     17  H   LIG d   1      -8.268  77.095 117.599  0.00  0.00     0.149 HD
ENDBRANCH   6  13
BRANCH   5  18
ATOM     18  N   LIG d   1      -5.294  77.981 118.963  0.00  0.00     0.381 N 
ATOM     19  H   LIG d   1      -5.180  77.525 119.846  0.00  0.00    -0.090 HD
ATOM     20  H   LIG d   1      -6.109  78.567 119.014  0.00  0.00    -0.090 HD
ATOM     21  H   LIG d   1      -4.491  78.534 118.761  0.00  0.00    -0.090 HD
ENDBRANCH   5  18
BRANCH   3  22
ATOM     22  C   LIG d   1      -3.133  74.840 116.065  0.00  0.00     0.382 C 
ATOM     23  O   LIG d   1      -3.184  74.847 114.812  0.00  0.00    -0.241 OA
ATOM     24  O   LIG d   1      -2.081  74.492 116.634  0.00  0.00    -0.241 OA
ENDBRANCH   3  22
TORSDOF 7
ENDMDL
MODEL 3
REMARK VINA RESULT:      -5.5     15.409     18.040
REMARK  7 active torsions:
REMARK  status: ('A' for Active; 'I' for Inactive)
REMARK    1  A    between atoms: C_2  and  C_3 
REMARK    2  A    between atoms: C_3  and  O_6 
REMARK    3  A    between atoms: C_3  and  C_4 
REMARK    4  A    between atoms: C_7  and  O_6 
REMARK    5  A    between atoms: C_9  and  C_10 
REMARK    6  A    between atoms: N_15  and  C_14 
REMARK    7  A    between atoms: N_20  and  C_19 
REMARK       I    between atoms: C_22  and  N_20 
ROOT
ATOM      1  C   LIG d   1      -6.039  93.482 117.821  0.00  0.00     0.161 C 
ATOM      2  C   LIG d   1      -6.997  92.627 117.252  0.00  0.00     0.016 C 
ATOM      3  C   LIG d   1      -6.690  91.344 116.742  0.00  0.00     0.038 C 
ATOM      4  C   LIG d   1      -5.422  90.766 116.905  0.00  0.00     0.028 C 
ATOM      5  C   LIG d   1      -4.299  91.791 117.021  0.00  0.00    -0.047 C 
ATOM      6  C   LIG d   1      -4.673  92.825 118.108  0.00  0.00     0.091 C 
ENDROOT
BRANCH   1   7
ATOM      7  O   LIG d   1      -6.569  94.080 119.021  0.00  0.00    -0.368 OA
BRANCH   7   8
ATOM      8  C   LIG d   1      -7.828  94.784 118.880  0.00  0.00     0.119 C 
BRANCH   8   9
ATOM      9  C   LIG d   1      -7.502  96.267 118.615  0.00  0.00     0.028 C 
ATOM     10  C   LIG d   1      -8.723  97.055 118.111  0.00  0.00     0.006 C 
ENDBRANCH   8   9
BRANCH   8  11
ATOM     11  C   LIG d   1      -8.624  94.770 120.188  0.00  0.00     0.028 C 
ATOM     12  C   LIG d   1      -8.613  93.397 120.878  0.00  0.00     0.006 C 
ENDBRANCH   8  11
ENDBRANCH   7   8
ENDBRANCH   1   7
BRANCH   6  13
ATOM     13  N   LIG d   1      -3.667  93.912 118.227  0.00  0.00    -0.311 N 
ATOM     14  C   LIG d   1      -2.658  93.885 119.096  0.00  0.00     0.210 C 
ATOM     15  C   LIG d   1      -1.747  95.116 119.068  0.00  0.00     0.109 C 
ATOM     16  O   LIG d   1      -2.412  92.943 119.865  0.00  0.00    -0.276 OA
ATOM     17  H   LIG d   1      -3.773  94.700 117.619  0.00  0.00     0.149 HD
ENDBRANCH   6  13
BRANCH   5  18
ATOM     18  N   LIG d   1      -3.056  91.058 117.324  0.00  0.00     0.381 N 
ATOM     19  H   LIG d   1      -3.197  90.466 118.118  0.00  0.00    -0.090 HD
ATOM     20  H   LIG d   1      -2.334  91.720 117.549  0.00  0.00    -0.090 HD
ATOM     21  H   LIG d   1      -2.782  90.511 116.538  0.00  0.00    -0.090 HD
ENDBRANCH   5  18
BRANCH   3  22
ATOM     22  C   LIG d   1      -7.647  90.642 116.025  0.00  0.00     0.382 C 
ATOM     23  O   LIG d   1      -8.499  91.262 115.344  0.00  0.00    -0.241 OA
ATOM     24  O   LIG d   1      -7.696  89.399 116.087  0.00  0.00    -0.241 OA
ENDBRANCH   3  22
TORSDOF 7
ENDMDL
MODEL 4
REMARK VINA RESULT:      -5.5     15.576     18.243
REMARK  7 active torsions:
REMARK  status: ('A' for Active; 'I' for Inactive)
REMARK    1  A    between atoms: C_2  and  C_3 
REMARK    2  A    between atoms: C_3  and  O_6 
REMARK    3  A    between atoms: C_3  and  C_4 
REMARK    4  A    between atoms: C_7  and  O_6 
REMARK    5  A    between atoms: C_9  and  C_10 
REMARK    6  A    between atoms: N_15  and  C_14 
REMARK    7  A    between atoms: N_20  and  C_19 
REMARK       I    between atoms: C_22  and  N_20 
ROOT
ATOM      1  C   LIG d   1      -6.195  93.430 117.663  0.00  0.00     0.161 C 
ATOM      2  C   LIG d   1      -7.125  92.549 117.088  0.00  0.00     0.016 C 
ATOM      3  C   LIG d   1      -6.788  91.259 116.618  0.00  0.00     0.038 C 
ATOM      4  C   LIG d   1      -5.518  90.701 116.831  0.00  0.00     0.028 C 
ATOM      5  C   LIG d   1      -4.412  91.743 116.955  0.00  0.00    -0.047 C 
ATOM      6  C   LIG d   1      -4.830  92.797 118.005  0.00  0.00     0.091 C 
ENDROOT
BRANCH   1   7
ATOM      7  O   LIG d   1      -6.767  94.049 118.833  0.00  0.00    -0.368 OA
BRANCH   7   8
ATOM      8  C   LIG d   1      -7.028  95.471 118.737  0.00  0.00     0.119 C 
BRANCH   8   9
ATOM      9  C   LIG d   1      -6.779  96.082 120.130  0.00  0.00     0.028 C 
ATOM     10  C   LIG d   1      -5.774  95.263 120.958  0.00  0.00     0.006 C 
ENDBRANCH   8   9
BRANCH   8  11
ATOM     11  C   LIG d   1      -8.503  95.748 118.432  0.00  0.00     0.028 C 
ATOM     12  C   LIG d   1      -8.785  97.232 118.147  0.00  0.00     0.006 C 
ENDBRANCH   8  11
ENDBRANCH   7   8
ENDBRANCH   1   7
BRANCH   6  13
ATOM     13  N   LIG d   1      -3.841  93.900 118.127  0.00  0.00    -0.311 N 
ATOM     14  C   LIG d   1      -2.860  93.909 119.028  0.00  0.00     0.210 C 
ATOM     15  C   LIG d   1      -1.963  95.150 118.995  0.00  0.00     0.109 C 
ATOM     16  O   LIG d   1      -2.628  92.991 119.830  0.00  0.00    -0.276 OA
ATOM     17  H   LIG d   1      -3.936  94.670 117.494  0.00  0.00     0.149 HD
ENDBRANCH   6  13
BRANCH   5  18
ATOM     18  N   LIG d   1      -3.169  91.033 117.311  0.00  0.00     0.381 N 
ATOM     19  H   LIG d   1      -2.587  91.628 117.867  0.00  0.00    -0.090 HD
ATOM     20  H   LIG d   1      -2.672  90.804 116.468  0.00  0.00    -0.090 HD
ATOM     21  H   LIG d   1      -3.384  90.201 117.815  0.00  0.00    -0.090 HD
ENDBRANCH   5  18
BRANCH   3  22
ATOM     22  C   LIG d   1      -7.715  90.527 115.891  0.00  0.00     0.382 C 
ATOM     23  O   LIG d   1      -7.868  89.304 116.122  0.00  0.00    -0.241 OA
ATOM     24  O   LIG d   1      -8.368  91.066 114.978  0.00  0.00    -0.241 OA
ENDBRANCH   3  22
TORSDOF 7
ENDMDL
MODEL 5
REMARK VINA RESULT:      -5.5     14.582     16.861
REMARK  7 active torsions:
REMARK  status: ('A' for Active; 'I' for Inactive)
REMARK    1  A    between atoms: C_2  and  C_3 
REMARK    2  A    between atoms: C_3  and  O_6 
REMARK    3  A    between atoms: C_3  and  C_4 
REMARK    4  A    between atoms: C_7  and  O_6 
REMARK    5  A    between atoms: C_9  and  C_10 
REMARK    6  A    between atoms: N_15  and  C_14 
REMARK    7  A    between atoms: N_20  and  C_19 
REMARK       I    between atoms: C_22  and  N_20 
ROOT
ATOM      1  C   LIG d   1      -4.493  91.504 117.820  0.00  0.00     0.161 C 
ATOM      2  C   LIG d   1      -5.451  90.857 117.021  0.00  0.00     0.016 C 
ATOM      3  C   LIG d   1      -6.663  91.462 116.617  0.00  0.00     0.038 C 
ATOM      4  C   LIG d   1      -6.932  92.818 116.860  0.00  0.00     0.028 C 
ATOM      5  C   LIG d   1      -6.222  93.364 118.094  0.00  0.00    -0.047 C 
ATOM      6  C   LIG d   1      -4.718  93.019 118.002  0.00  0.00     0.091 C 
ENDROOT
BRANCH   1   7
ATOM      7  O   LIG d   1      -3.173  91.253 117.299  0.00  0.00    -0.368 OA
BRANCH   7   8
ATOM      8  C   LIG d   1      -2.253  90.575 118.191  0.00  0.00     0.119 C 
BRANCH   8   9
ATOM      9  C   LIG d   1      -0.825  90.868 117.692  0.00  0.00     0.028 C 
ATOM     10  C   LIG d   1      -0.008  91.691 118.702  0.00  0.00     0.006 C 
ENDBRANCH   8   9
BRANCH   8  11
ATOM     11  C   LIG d   1      -2.410  89.054 118.103  0.00  0.00     0.028 C 
ATOM     12  C   LIG d   1      -2.755  88.412 119.455  0.00  0.00     0.006 C 
ENDBRANCH   8  11
ENDBRANCH   7   8
ENDBRANCH   1   7
BRANCH   6  13
ATOM     13  N   LIG d   1      -3.964  93.445 119.210  0.00  0.00    -0.311 N 
ATOM     14  C   LIG d   1      -2.833  94.146 119.158  0.00  0.00     0.210 C 
ATOM     15  C   LIG d   1      -2.207  94.463 120.520  0.00  0.00     0.109 C 
ATOM     16  O   LIG d   1      -2.306  94.563 118.116  0.00  0.00    -0.276 OA
ATOM     17  H   LIG d   1      -4.338  93.175 120.099  0.00  0.00     0.149 HD
ENDBRANCH   6  13
BRANCH   5  18
ATOM     18  N   LIG d   1      -6.480  94.816 118.149  0.00  0.00     0.381 N 
ATOM     19  H   LIG d   1      -5.953  95.281 117.438  0.00  0.00    -0.090 HD
ATOM     20  H   LIG d   1      -6.181  95.165 119.043  0.00  0.00    -0.090 HD
ATOM     21  H   LIG d   1      -7.452  94.995 118.023  0.00  0.00    -0.090 HD
ENDBRANCH   5  18
BRANCH   3  22
ATOM     22  C   LIG d   1      -7.639  90.698 115.995  0.00  0.00     0.382 C 
ATOM     23  O   LIG d   1      -8.554  91.258 115.345  0.00  0.00    -0.241 OA
ATOM     24  O   LIG d   1      -7.641  89.458 116.114  0.00  0.00    -0.241 OA
ENDBRANCH   3  22
TORSDOF 7
ENDMDL
MODEL 6
REMARK VINA RESULT:      -5.3      1.966      4.861
REMARK  7 active torsions:
REMARK  status: ('A' for Active; 'I' for Inactive)
REMARK    1  A    between atoms: C_2  and  C_3 
REMARK    2  A    between atoms: C_3  and  O_6 
REMARK    3  A    between atoms: C_3  and  C_4 
REMARK    4  A    between atoms: C_7  and  O_6 
REMARK    5  A    between atoms: C_9  and  C_10 
REMARK    6  A    between atoms: N_15  and  C_14 
REMARK    7  A    between atoms: N_20  and  C_19 
REMARK       I    between atoms: C_22  and  N_20 
ROOT
ATOM      1  C   LIG d   1      -8.639  75.047 117.678  0.00  0.00     0.161 C 
ATOM      2  C   LIG d   1      -9.369  73.846 117.711  0.00  0.00     0.016 C 
ATOM      3  C   LIG d   1      -8.807  72.586 117.404  0.00  0.00     0.038 C 
ATOM      4  C   LIG d   1      -7.431  72.420 117.189  0.00  0.00     0.028 C 
ATOM      5  C   LIG d   1      -6.747  73.671 116.650  0.00  0.00    -0.047 C 
ATOM      6  C   LIG d   1      -7.111  74.871 117.554  0.00  0.00     0.091 C 
ENDROOT
BRANCH   1   7
ATOM      7  O   LIG d   1      -8.960  75.845 118.835  0.00  0.00    -0.368 OA
BRANCH   7   8
ATOM      8  C   LIG d   1      -9.069  77.273 118.613  0.00  0.00     0.119 C 
BRANCH   8   9
ATOM      9  C   LIG d   1      -8.091  77.967 119.581  0.00  0.00     0.028 C 
ATOM     10  C   LIG d   1      -7.521  77.002 120.633  0.00  0.00     0.006 C 
ENDBRANCH   8   9
BRANCH   8  11
ATOM     11  C   LIG d   1     -10.458  77.791 118.998  0.00  0.00     0.028 C 
ATOM     12  C   LIG d   1     -11.429  76.665 119.384  0.00  0.00     0.006 C 
ENDBRANCH   8  11
ENDBRANCH   7   8
ENDBRANCH   1   7
BRANCH   6  13
ATOM     13  N   LIG d   1      -6.551  76.152 117.049  0.00  0.00    -0.311 N 
ATOM     14  C   LIG d   1      -5.385  76.652 117.454  0.00  0.00     0.210 C 
ATOM     15  C   LIG d   1      -5.003  77.995 116.823  0.00  0.00     0.109 C 
ATOM     16  O   LIG d   1      -4.616  76.096 118.253  0.00  0.00    -0.276 OA
ATOM     17  H   LIG d   1      -7.095  76.653 116.375  0.00  0.00     0.149 HD
ENDBRANCH   6  13
BRANCH   5  18
ATOM     18  N   LIG d   1      -5.297  73.402 116.604  0.00  0.00     0.381 N 
ATOM     19  H   LIG d   1      -5.134  72.494 116.216  0.00  0.00    -0.090 HD
ATOM     20  H   LIG d   1      -4.934  73.415 117.540  0.00  0.00    -0.090 HD
ATOM     21  H   LIG d   1      -4.839  74.094 116.052  0.00  0.00    -0.090 HD
ENDBRANCH   5  18
BRANCH   3  22
ATOM     22  C   LIG d   1      -9.633  71.480 117.271  0.00  0.00     0.382 C 
ATOM     23  O   LIG d   1      -9.870  71.008 116.133  0.00  0.00    -0.241 OA
ATOM     24  O   LIG d   1     -10.179  70.975 118.271  0.00  0.00    -0.241 OA
ENDBRANCH   3  22
TORSDOF 7
ENDMDL
MODEL 7
REMARK VINA RESULT:      -5.1     15.380     17.927
REMARK  7 active torsions:
REMARK  status: ('A' for Active; 'I' for Inactive)
REMARK    1  A    between atoms: C_2  and  C_3 
REMARK    2  A    between atoms: C_3  and  O_6 
REMARK    3  A    between atoms: C_3  and  C_4 
REMARK    4  A    between atoms: C_7  and  O_6 
REMARK    5  A    between atoms: C_9  and  C_10 
REMARK    6  A    between atoms: N_15  and  C_14 
REMARK    7  A    between atoms: N_20  and  C_19 
REMARK       I    between atoms: C_22  and  N_20 
ROOT
ATOM      1  C   LIG d   1      -5.157  92.088 118.890  0.00  0.00     0.161 C 
ATOM      2  C   LIG d   1      -5.323  91.219 117.798  0.00  0.00     0.016 C 
ATOM      3  C   LIG d   1      -6.251  91.448 116.756  0.00  0.00     0.038 C 
ATOM      4  C   LIG d   1      -6.974  92.646 116.657  0.00  0.00     0.028 C 
ATOM      5  C   LIG d   1      -7.209  93.325 118.002  0.00  0.00    -0.047 C 
ATOM      6  C   LIG d   1      -5.858  93.454 118.742  0.00  0.00     0.091 C 
ENDROOT
BRANCH   1   7
ATOM      7  O   LIG d   1      -3.753  92.271 119.159  0.00  0.00    -0.368 OA
BRANCH   7   8
ATOM      8  C   LIG d   1      -2.933  92.658 118.029  0.00  0.00     0.119 C 
BRANCH   8   9
ATOM      9  C   LIG d   1      -1.664  91.783 118.058  0.00  0.00     0.028 C 
ATOM     10  C   LIG d   1      -1.778  90.616 119.053  0.00  0.00     0.006 C 
ENDBRANCH   8   9
BRANCH   8  11
ATOM     11  C   LIG d   1      -2.435  94.099 118.169  0.00  0.00     0.028 C 
ATOM     12  C   LIG d   1      -1.087  94.335 117.469  0.00  0.00     0.006 C 
ENDBRANCH   8  11
ENDBRANCH   7   8
ENDBRANCH   1   7
BRANCH   6  13
ATOM     13  N   LIG d   1      -6.010  94.032 120.102  0.00  0.00    -0.311 N 
ATOM     14  C   LIG d   1      -5.804  95.318 120.380  0.00  0.00     0.210 C 
ATOM     15  C   LIG d   1      -5.996  95.701 121.851  0.00  0.00     0.109 C 
ATOM     16  O   LIG d   1      -5.513  96.185 119.542  0.00  0.00    -0.276 OA
ATOM     17  H   LIG d   1      -6.274  93.405 120.837  0.00  0.00     0.149 HD
ENDBRANCH   6  13
BRANCH   5  18
ATOM     18  N   LIG d   1      -7.851  94.626 117.738  0.00  0.00     0.381 N 
ATOM     19  H   LIG d   1      -7.426  95.059 116.943  0.00  0.00    -0.090 HD
ATOM     20  H   LIG d   1      -7.713  95.224 118.534  0.00  0.00    -0.090 HD
ATOM     21  H   LIG d   1      -8.826  94.499 117.574  0.00  0.00    -0.090 HD
ENDBRANCH   5  18
BRANCH   3  22
ATOM     22  C   LIG d   1      -6.491  90.454 115.820  0.00  0.00     0.382 C 
ATOM     23  O   LIG d   1      -7.334  89.556 116.061  0.00  0.00    -0.241 OA
ATOM     24  O   LIG d   1      -5.845  90.418 114.756  0.00  0.00    -0.241 OA
ENDBRANCH   3  22
TORSDOF 7
ENDMDL
MODEL 8
REMARK VINA RESULT:      -5.0      2.577      4.775
REMARK  7 active torsions:
REMARK  status: ('A' for Active; 'I' for Inactive)
REMARK    1  A    between atoms: C_2  and  C_3 
REMARK    2  A    between atoms: C_3  and  O_6 
REMARK    3  A    between atoms: C_3  and  C_4 
REMARK    4  A    between atoms: C_7  and  O_6 
REMARK    5  A    between atoms: C_9  and  C_10 
REMARK    6  A    between atoms: N_15  and  C_14 
REMARK    7  A    between atoms: N_20  and  C_19 
REMARK       I    between atoms: C_22  and  N_20 
ROOT
ATOM      1  C   LIG d   1      -6.682  76.389 116.371  0.00  0.00     0.161 C 
ATOM      2  C   LIG d   1      -8.049  76.269 116.674  0.00  0.00     0.016 C 
ATOM      3  C   LIG d   1      -8.670  75.041 116.994  0.00  0.00     0.038 C 
ATOM      4  C   LIG d   1      -7.931  73.863 117.182  0.00  0.00     0.028 C 
ATOM      5  C   LIG d   1      -6.626  73.834 116.394  0.00  0.00    -0.047 C 
ATOM      6  C   LIG d   1      -5.839  75.134 116.680  0.00  0.00     0.091 C 
ENDROOT
BRANCH   1   7
ATOM      7  O   LIG d   1      -6.132  77.540 117.043  0.00  0.00    -0.368 OA
BRANCH   7   8
ATOM      8  C   LIG d   1      -6.932  78.095 118.115  0.00  0.00     0.119 C 
BRANCH   8   9
ATOM      9  C   LIG d   1      -6.905  79.629 117.965  0.00  0.00     0.028 C 
ATOM     10  C   LIG d   1      -5.536  80.149 117.498  0.00  0.00     0.006 C 
ENDBRANCH   8   9
BRANCH   8  11
ATOM     11  C   LIG d   1      -6.306  77.810 119.483  0.00  0.00     0.028 C 
ATOM     12  C   LIG d   1      -7.071  76.740 120.277  0.00  0.00     0.006 C 
ENDBRANCH   8  11
ENDBRANCH   7   8
ENDBRANCH   1   7
BRANCH   6  13
ATOM     13  N   LIG d   1      -4.588  75.225 115.883  0.00  0.00    -0.311 N 
ATOM     14  C   LIG d   1      -3.403  74.809 116.328  0.00  0.00     0.210 C 
ATOM     15  C   LIG d   1      -2.239  75.014 115.354  0.00  0.00     0.109 C 
ATOM     16  O   LIG d   1      -3.213  74.259 117.423  0.00  0.00    -0.276 OA
ATOM     17  H   LIG d   1      -4.657  75.630 114.970  0.00  0.00     0.149 HD
ENDBRANCH   6  13
BRANCH   5  18
ATOM     18  N   LIG d   1      -5.894  72.616 116.789  0.00  0.00     0.381 N 
ATOM     19  H   LIG d   1      -5.701  72.060 115.980  0.00  0.00    -0.090 HD
ATOM     20  H   LIG d   1      -6.470  72.078 117.412  0.00  0.00    -0.090 HD
ATOM     21  H   LIG d   1      -5.042  72.863 117.242  0.00  0.00    -0.090 HD
ENDBRANCH   5  18
BRANCH   3  22
ATOM     22  C   LIG d   1     -10.052  74.974 117.090  0.00  0.00     0.382 C 
ATOM     23  O   LIG d   1     -10.705  74.283 116.272  0.00  0.00    -0.241 OA
ATOM     24  O   LIG d   1     -10.657  75.631 117.958  0.00  0.00    -0.241 OA
ENDBRANCH   3  22
TORSDOF 7
ENDMDL
MODEL 9
REMARK VINA RESULT:      -4.8     17.562     20.322
REMARK  7 active torsions:
REMARK  status: ('A' for Active; 'I' for Inactive)
REMARK    1  A    between atoms: C_2  and  C_3 
REMARK    2  A    between atoms: C_3  and  O_6 
REMARK    3  A    between atoms: C_3  and  C_4 
REMARK    4  A    between atoms: C_7  and  O_6 
REMARK    5  A    between atoms: C_9  and  C_10 
REMARK    6  A    between atoms: N_15  and  C_14 
REMARK    7  A    between atoms: N_20  and  C_19 
REMARK       I    between atoms: C_22  and  N_20 
ROOT
ATOM      1  C   LIG d   1       1.167  58.747 118.319  0.00  0.00     0.161 C 
ATOM      2  C   LIG d   1       0.445  59.808 118.891  0.00  0.00     0.016 C 
ATOM      3  C   LIG d   1      -0.569  59.627 119.860  0.00  0.00     0.038 C 
ATOM      4  C   LIG d   1      -0.826  58.375 120.438  0.00  0.00     0.028 C 
ATOM      5  C   LIG d   1      -0.471  57.203 119.528  0.00  0.00    -0.047 C 
ATOM      6  C   LIG d   1       0.977  57.385 119.019  0.00  0.00     0.091 C 
ENDROOT
BRANCH   1   7
ATOM      7  O   LIG d   1       2.567  59.087 118.256  0.00  0.00    -0.368 OA
BRANCH   7   8
ATOM      8  C   LIG d   1       3.007  60.143 119.145  0.00  0.00     0.119 C 
BRANCH   8   9
ATOM      9  C   LIG d   1       4.042  60.991 118.380  0.00  0.00     0.028 C 
ATOM     10  C   LIG d   1       5.410  61.020 119.081  0.00  0.00     0.006 C 
ENDBRANCH   8   9
BRANCH   8  11
ATOM     11  C   LIG d   1       3.759  59.578 120.353  0.00  0.00     0.028 C 
ATOM     12  C   LIG d   1       2.924  59.607 121.643  0.00  0.00     0.006 C 
ENDBRANCH   8  11
ENDBRANCH   7   8
ENDBRANCH   1   7
BRANCH   6  13
ATOM     13  N   LIG d   1       1.376  56.326 118.055  0.00  0.00    -0.311 N 
ATOM     14  C   LIG d   1       2.020  55.216 118.412  0.00  0.00     0.210 C 
ATOM     15  C   LIG d   1       2.354  54.264 117.259  0.00  0.00     0.109 C 
ATOM     16  O   LIG d   1       2.317  54.913 119.578  0.00  0.00    -0.276 OA
ATOM     17  H   LIG d   1       1.147  56.475 117.092  0.00  0.00     0.149 HD
ENDBRANCH   6  13
BRANCH   5  18
ATOM     18  N   LIG d   1      -0.659  55.963 120.305  0.00  0.00     0.381 N 
ATOM     19  H   LIG d   1       0.232  55.569 120.534  0.00  0.00    -0.090 HD
ATOM     20  H   LIG d   1      -1.162  55.300 119.742  0.00  0.00    -0.090 HD
ATOM     21  H   LIG d   1      -1.169  56.157 121.138  0.00  0.00    -0.090 HD
ENDBRANCH   5  18
BRANCH   3  22
ATOM     22  C   LIG d   1      -1.365  60.700 120.231  0.00  0.00     0.382 C 
ATOM     23  O   LIG d   1      -1.525  60.971 121.445  0.00  0.00    -0.241 OA
ATOM     24  O   LIG d   1      -1.960  61.373 119.368  0.00  0.00    -0.241 OA
ENDBRANCH   3  22
TORSDOF 7
ENDMDL
