MODEL 1
REMARK VINA RESULT:      -6.4      0.000      0.000
REMARK  7 active torsions:
REMARK  status: ('A' for Active; 'I' for Inactive)
REMARK    1  A    between atoms: C_2  and  C_3 
REMARK    2  A    between atoms: C_3  and  O_6 
REMARK    3  A    between atoms: C_3  and  C_4 
REMARK    4  A    between atoms: C_7  and  O_6 
REMARK    5  A    between atoms: C_9  and  C_10 
REMARK    6  A    between atoms: N_15  and  C_14 
REMARK    7  A    between atoms: N_20  and  C_19 
REMARK       I    between atoms: C_22  and  N_20 
ROOT
ATOM      1  C   LIG d   1       1.597  83.406 109.414  0.00  0.00     0.161 C 
ATOM      2  C   LIG d   1       1.760  84.728 109.860  0.00  0.00     0.016 C 
ATOM      3  C   LIG d   1       1.174  85.228 111.046  0.00  0.00     0.038 C 
ATOM      4  C   LIG d   1       0.506  84.391 111.952  0.00  0.00     0.028 C 
ATOM      5  C   LIG d   1      -0.114  83.161 111.296  0.00  0.00    -0.047 C 
ATOM      6  C   LIG d   1       0.963  82.450 110.446  0.00  0.00     0.091 C 
ENDROOT
BRANCH   1   7
ATOM      7  O   LIG d   1       2.861  82.885 108.959  0.00  0.00    -0.368 OA
BRANCH   7   8
ATOM      8  C   LIG d   1       3.550  81.994 109.871  0.00  0.00     0.119 C 
BRANCH   8   9
ATOM      9  C   LIG d   1       4.713  82.785 110.500  0.00  0.00     0.028 C 
ATOM     10  C   LIG d   1       4.440  83.165 111.965  0.00  0.00     0.006 C 
ENDBRANCH   8   9
BRANCH   8  11
ATOM     11  C   LIG d   1       4.207  80.830 109.123  0.00  0.00     0.028 C 
ATOM     12  C   LIG d   1       3.899  79.465 109.757  0.00  0.00     0.006 C 
ENDBRANCH   8  11
ENDBRANCH   7   8
ENDBRANCH   1   7
BRANCH   6  13
ATOM     13  N   LIG d   1       0.419  81.283 109.703  0.00  0.00    -0.311 N 
ATOM     14  C   LIG d   1       0.389  80.047 110.199  0.00  0.00     0.210 C 
ATOM     15  C   LIG d   1      -0.195  78.988 109.259  0.00  0.00     0.109 C 
ATOM     16  O   LIG d   1       0.761  79.734 111.340  0.00  0.00    -0.276 OA
ATOM     17  H   LIG d   1       0.068  81.453 108.781  0.00  0.00     0.149 HD
ENDBRANCH   6  13
BRANCH   5  18
ATOM     18  N   LIG d   1      -0.658  82.310 112.371  0.00  0.00     0.381 N 
ATOM     19  H   LIG d   1      -0.042  82.325 113.159  0.00  0.00    -0.090 HD
ATOM     20  H   LIG d   1      -0.719  81.364 112.037  0.00  0.00    -0.090 HD
ATOM     21  H   LIG d   1      -1.561  82.634 112.640  0.00  0.00    -0.090 HD
ENDBRANCH   5  18
BRANCH   3  22
ATOM     22  C   LIG d   1       1.221  86.587 111.316  0.00  0.00     0.382 C 
ATOM     23  O   LIG d   1       0.164  87.212 111.573  0.00  0.00    -0.241 OA
ATOM     24  O   LIG d   1       2.301  87.205 111.262  0.00  0.00    -0.241 OA
ENDBRANCH   3  22
TORSDOF 7
ENDMDL
MODEL 2
REMARK VINA RESULT:      -6.3      2.411      4.830
REMARK  7 active torsions:
REMARK  status: ('A' for Active; 'I' for Inactive)
REMARK    1  A    between atoms: C_2  and  C_3 
REMARK    2  A    between atoms: C_3  and  O_6 
REMARK    3  A    between atoms: C_3  and  C_4 
REMARK    4  A    between atoms: C_7  and  O_6 
REMARK    5  A    between atoms: C_9  and  C_10 
REMARK    6  A    between atoms: N_15  and  C_14 
REMARK    7  A    between atoms: N_20  and  C_19 
REMARK       I    between atoms: C_22  and  N_20 
ROOT
ATOM      1  C   LIG d   1       0.450  82.575 111.474  0.00  0.00     0.161 C 
ATOM      2  C   LIG d   1      -0.709  82.337 112.232  0.00  0.00     0.016 C 
ATOM      3  C   LIG d   1      -1.253  81.048 112.437  0.00  0.00     0.038 C 
ATOM      4  C   LIG d   1      -0.586  79.887 112.021  0.00  0.00     0.028 C 
ATOM      5  C   LIG d   1       0.324  80.109 110.818  0.00  0.00    -0.047 C 
ATOM      6  C   LIG d   1       1.253  81.310 111.106  0.00  0.00     0.091 C 
ENDROOT
BRANCH   1   7
ATOM      7  O   LIG d   1       1.294  83.523 112.157  0.00  0.00    -0.368 OA
BRANCH   7   8
ATOM      8  C   LIG d   1       1.428  84.823 111.531  0.00  0.00     0.119 C 
BRANCH   8   9
ATOM      9  C   LIG d   1       0.476  84.855 110.320  0.00  0.00     0.028 C 
ATOM     10  C   LIG d   1      -0.590  85.957 110.440  0.00  0.00     0.006 C 
ENDBRANCH   8   9
BRANCH   8  11
ATOM     11  C   LIG d   1       2.831  85.019 110.948  0.00  0.00     0.028 C 
ATOM     12  C   LIG d   1       3.920  84.302 111.763  0.00  0.00     0.006 C 
ENDBRANCH   8  11
ENDBRANCH   7   8
ENDBRANCH   1   7
BRANCH   6  13
ATOM     13  N   LIG d   1       2.118  81.649 109.946  0.00  0.00    -0.311 N 
ATOM     14  C   LIG d   1       3.351  81.171 109.786  0.00  0.00     0.210 C 
ATOM     15  C   LIG d   1       4.078  81.662 108.530  0.00  0.00     0.109 C 
ATOM     16  O   LIG d   1       3.900  80.361 110.549  0.00  0.00    -0.276 OA
ATOM     17  H   LIG d   1       1.740  82.275 109.262  0.00  0.00     0.149 HD
ENDBRANCH   6  13
BRANCH   5  18
ATOM     18  N   LIG d   1       1.060  78.853 110.577  0.00  0.00     0.381 N 
ATOM     19  H   LIG d   1       0.875  78.205 111.317  0.00  0.00    -0.090 HD
ATOM     20  H   LIG d   1       2.045  79.050 110.569  0.00  0.00    -0.090 HD
ATOM     21  H   LIG d   1       0.785  78.459 109.704  0.00  0.00    -0.090 HD
ENDBRANCH   5  18
BRANCH   3  22
ATOM     22  C   LIG d   1      -2.499  80.915 113.031  0.00  0.00     0.382 C 
ATOM     23  O   LIG d   1      -2.662  80.100 113.971  0.00  0.00    -0.241 OA
ATOM     24  O   LIG d   1      -3.473  81.567 112.609  0.00  0.00    -0.241 OA
ENDBRANCH   3  22
TORSDOF 7
ENDMDL
MODEL 3
REMARK VINA RESULT:      -6.1      2.426      4.940
REMARK  7 active torsions:
REMARK  status: ('A' for Active; 'I' for Inactive)
REMARK    1  A    between atoms: C_2  and  C_3 
REMARK    2  A    between atoms: C_3  and  O_6 
REMARK    3  A    between atoms: C_3  and  C_4 
REMARK    4  A    between atoms: C_7  and  O_6 
REMARK    5  A    between atoms: C_9  and  C_10 
REMARK    6  A    between atoms: N_15  and  C_14 
REMARK    7  A    between atoms: N_20  and  C_19 
REMARK       I    between atoms: C_22  and  N_20 
ROOT
ATOM      1  C   LIG d   1       0.338  82.624 111.386  0.00  0.00     0.161 C 
ATOM      2  C   LIG d   1      -0.808  82.362 112.155  0.00  0.00     0.016 C 
ATOM      3  C   LIG d   1      -1.281  81.058 112.429  0.00  0.00     0.038 C 
ATOM      4  C   LIG d   1      -0.548  79.915 112.077  0.00  0.00     0.028 C 
ATOM      5  C   LIG d   1       0.353  80.123 110.863  0.00  0.00    -0.047 C 
ATOM      6  C   LIG d   1       1.212  81.388 111.087  0.00  0.00     0.091 C 
ENDROOT
BRANCH   1   7
ATOM      7  O   LIG d   1       1.125  83.653 112.018  0.00  0.00    -0.368 OA
BRANCH   7   8
ATOM      8  C   LIG d   1       1.336  84.859 111.243  0.00  0.00     0.119 C 
BRANCH   8   9
ATOM      9  C   LIG d   1       2.671  85.477 111.702  0.00  0.00     0.028 C 
ATOM     10  C   LIG d   1       3.882  84.612 111.315  0.00  0.00     0.006 C 
ENDBRANCH   8   9
BRANCH   8  11
ATOM     11  C   LIG d   1       0.272  85.915 111.556  0.00  0.00     0.028 C 
ATOM     12  C   LIG d   1      -0.757  86.077 110.426  0.00  0.00     0.006 C 
ENDBRANCH   8  11
ENDBRANCH   7   8
ENDBRANCH   1   7
BRANCH   6  13
ATOM     13  N   LIG d   1       2.061  81.711 109.911  0.00  0.00    -0.311 N 
ATOM     14  C   LIG d   1       3.313  81.278 109.769  0.00  0.00     0.210 C 
ATOM     15  C   LIG d   1       4.018  81.744 108.492  0.00  0.00     0.109 C 
ATOM     16  O   LIG d   1       3.895  80.526 110.565  0.00  0.00    -0.276 OA
ATOM     17  H   LIG d   1       1.657  82.291 109.202  0.00  0.00     0.149 HD
ENDBRANCH   6  13
BRANCH   5  18
ATOM     18  N   LIG d   1       1.158  78.899 110.692  0.00  0.00     0.381 N 
ATOM     19  H   LIG d   1       2.038  79.005 111.156  0.00  0.00    -0.090 HD
ATOM     20  H   LIG d   1       1.333  78.760 109.712  0.00  0.00    -0.090 HD
ATOM     21  H   LIG d   1       0.670  78.114 111.064  0.00  0.00    -0.090 HD
ENDBRANCH   5  18
BRANCH   3  22
ATOM     22  C   LIG d   1      -2.519  80.888 113.028  0.00  0.00     0.382 C 
ATOM     23  O   LIG d   1      -2.666  80.030 113.932  0.00  0.00    -0.241 OA
ATOM     24  O   LIG d   1      -3.503  81.549 112.645  0.00  0.00    -0.241 OA
ENDBRANCH   3  22
TORSDOF 7
ENDMDL
MODEL 4
REMARK VINA RESULT:      -6.1      2.158      3.854
REMARK  7 active torsions:
REMARK  status: ('A' for Active; 'I' for Inactive)
REMARK    1  A    between atoms: C_2  and  C_3 
REMARK    2  A    between atoms: C_3  and  O_6 
REMARK    3  A    between atoms: C_3  and  C_4 
REMARK    4  A    between atoms: C_7  and  O_6 
REMARK    5  A    between atoms: C_9  and  C_10 
REMARK    6  A    between atoms: N_15  and  C_14 
REMARK    7  A    between atoms: N_20  and  C_19 
REMARK       I    between atoms: C_22  and  N_20 
ROOT
ATOM      1  C   LIG d   1       0.463  82.533 111.167  0.00  0.00     0.161 C 
ATOM      2  C   LIG d   1       0.430  83.918 111.399  0.00  0.00     0.016 C 
ATOM      3  C   LIG d   1       1.038  84.865 110.543  0.00  0.00     0.038 C 
ATOM      4  C   LIG d   1       1.594  84.499 109.309  0.00  0.00     0.028 C 
ATOM      5  C   LIG d   1       2.095  83.060 109.273  0.00  0.00    -0.047 C 
ATOM      6  C   LIG d   1       0.969  82.124 109.768  0.00  0.00     0.091 C 
ENDROOT
BRANCH   1   7
ATOM      7  O   LIG d   1      -0.838  81.965 111.415  0.00  0.00    -0.368 OA
BRANCH   7   8
ATOM      8  C   LIG d   1      -1.054  81.419 112.740  0.00  0.00     0.119 C 
BRANCH   8   9
ATOM      9  C   LIG d   1      -0.099  80.221 112.908  0.00  0.00     0.028 C 
ATOM     10  C   LIG d   1       0.456  80.109 114.338  0.00  0.00     0.006 C 
ENDBRANCH   8   9
BRANCH   8  11
ATOM     11  C   LIG d   1      -2.463  80.837 112.880  0.00  0.00     0.028 C 
ATOM     12  C   LIG d   1      -2.580  79.414 112.310  0.00  0.00     0.006 C 
ENDBRANCH   8  11
ENDBRANCH   7   8
ENDBRANCH   1   7
BRANCH   6  13
ATOM     13  N   LIG d   1       1.404  80.705 109.845  0.00  0.00    -0.311 N 
ATOM     14  C   LIG d   1       0.730  79.700 109.286  0.00  0.00     0.210 C 
ATOM     15  C   LIG d   1       1.342  78.313 109.502  0.00  0.00     0.109 C 
ATOM     16  O   LIG d   1      -0.298  79.831 108.605  0.00  0.00    -0.276 OA
ATOM     17  H   LIG d   1       2.245  80.512 110.352  0.00  0.00     0.149 HD
ENDBRANCH   6  13
BRANCH   5  18
ATOM     18  N   LIG d   1       2.522  82.770 107.891  0.00  0.00     0.381 N 
ATOM     19  H   LIG d   1       3.025  83.552 107.521  0.00  0.00    -0.090 HD
ATOM     20  H   LIG d   1       1.706  82.623 107.323  0.00  0.00    -0.090 HD
ATOM     21  H   LIG d   1       3.098  81.957 107.875  0.00  0.00    -0.090 HD
ENDBRANCH   5  18
BRANCH   3  22
ATOM     22  C   LIG d   1       1.128  86.191 110.940  0.00  0.00     0.382 C 
ATOM     23  O   LIG d   1       0.117  86.781 111.391  0.00  0.00    -0.241 OA
ATOM     24  O   LIG d   1       2.197  86.818 110.810  0.00  0.00    -0.241 OA
ENDBRANCH   3  22
TORSDOF 7
ENDMDL
MODEL 5
REMARK VINA RESULT:      -6.0      2.187      3.733
REMARK  7 active torsions:
REMARK  status: ('A' for Active; 'I' for Inactive)
REMARK    1  A    between atoms: C_2  and  C_3 
REMARK    2  A    between atoms: C_3  and  O_6 
REMARK    3  A    between atoms: C_3  and  C_4 
REMARK    4  A    between atoms: C_7  and  O_6 
REMARK    5  A    between atoms: C_9  and  C_10 
REMARK    6  A    between atoms: N_15  and  C_14 
REMARK    7  A    between atoms: N_20  and  C_19 
REMARK       I    between atoms: C_22  and  N_20 
ROOT
ATOM      1  C   LIG d   1       2.470  85.052 110.474  0.00  0.00     0.161 C 
ATOM      2  C   LIG d   1       1.440  85.842 111.011  0.00  0.00     0.016 C 
ATOM      3  C   LIG d   1       0.171  85.330 111.366  0.00  0.00     0.038 C 
ATOM      4  C   LIG d   1      -0.104  83.954 111.350  0.00  0.00     0.028 C 
ATOM      5  C   LIG d   1       0.735  83.181 110.339  0.00  0.00    -0.047 C 
ATOM      6  C   LIG d   1       2.226  83.530 110.552  0.00  0.00     0.091 C 
ENDROOT
BRANCH   1   7
ATOM      7  O   LIG d   1       3.723  85.391 111.100  0.00  0.00    -0.368 OA
BRANCH   7   8
ATOM      8  C   LIG d   1       3.635  86.083 112.370  0.00  0.00     0.119 C 
BRANCH   8   9
ATOM      9  C   LIG d   1       4.710  87.186 112.372  0.00  0.00     0.028 C 
ATOM     10  C   LIG d   1       4.249  88.454 113.110  0.00  0.00     0.006 C 
ENDBRANCH   8   9
BRANCH   8  11
ATOM     11  C   LIG d   1       4.000  85.158 113.535  0.00  0.00     0.028 C 
ATOM     12  C   LIG d   1       2.771  84.686 114.329  0.00  0.00     0.006 C 
ENDBRANCH   8  11
ENDBRANCH   7   8
ENDBRANCH   1   7
BRANCH   6  13
ATOM     13  N   LIG d   1       3.110  82.880 109.550  0.00  0.00    -0.311 N 
ATOM     14  C   LIG d   1       3.714  81.711 109.753  0.00  0.00     0.210 C 
ATOM     15  C   LIG d   1       4.597  81.230 108.598  0.00  0.00     0.109 C 
ATOM     16  O   LIG d   1       3.577  81.012 110.768  0.00  0.00    -0.276 OA
ATOM     17  H   LIG d   1       3.251  83.364 108.685  0.00  0.00     0.149 HD
ENDBRANCH   6  13
BRANCH   5  18
ATOM     18  N   LIG d   1       0.446  81.746 110.524  0.00  0.00     0.381 N 
ATOM     19  H   LIG d   1       1.269  81.208 110.342  0.00  0.00    -0.090 HD
ATOM     20  H   LIG d   1      -0.263  81.470 109.867  0.00  0.00    -0.090 HD
ATOM     21  H   LIG d   1       0.130  81.579 111.454  0.00  0.00    -0.090 HD
ENDBRANCH   5  18
BRANCH   3  22
ATOM     22  C   LIG d   1      -0.851  86.202 111.706  0.00  0.00     0.382 C 
ATOM     23  O   LIG d   1      -1.406  86.894 110.819  0.00  0.00    -0.241 OA
ATOM     24  O   LIG d   1      -1.196  86.339 112.895  0.00  0.00    -0.241 OA
ENDBRANCH   3  22
TORSDOF 7
ENDMDL
MODEL 6
REMARK VINA RESULT:      -5.9      2.293      4.681
REMARK  7 active torsions:
REMARK  status: ('A' for Active; 'I' for Inactive)
REMARK    1  A    between atoms: C_2  and  C_3 
REMARK    2  A    between atoms: C_3  and  O_6 
REMARK    3  A    between atoms: C_3  and  C_4 
REMARK    4  A    between atoms: C_7  and  O_6 
REMARK    5  A    between atoms: C_9  and  C_10 
REMARK    6  A    between atoms: N_15  and  C_14 
REMARK    7  A    between atoms: N_20  and  C_19 
REMARK       I    between atoms: C_22  and  N_20 
ROOT
ATOM      1  C   LIG d   1       1.557  81.879 112.100  0.00  0.00     0.161 C 
ATOM      2  C   LIG d   1       2.623  82.186 111.239  0.00  0.00     0.016 C 
ATOM      3  C   LIG d   1       2.722  81.695 109.917  0.00  0.00     0.038 C 
ATOM      4  C   LIG d   1       1.678  80.980 109.311  0.00  0.00     0.028 C 
ATOM      5  C   LIG d   1       0.807  80.221 110.307  0.00  0.00    -0.047 C 
ATOM      6  C   LIG d   1       0.354  81.192 111.420  0.00  0.00     0.091 C 
ENDROOT
BRANCH   1   7
ATOM      7  O   LIG d   1       1.129  83.069 112.792  0.00  0.00    -0.368 OA
BRANCH   7   8
ATOM      8  C   LIG d   1       1.136  84.294 112.017  0.00  0.00     0.119 C 
BRANCH   8   9
ATOM      9  C   LIG d   1       1.919  85.347 112.825  0.00  0.00     0.028 C 
ATOM     10  C   LIG d   1       3.171  85.844 112.082  0.00  0.00     0.006 C 
ENDBRANCH   8   9
BRANCH   8  11
ATOM     11  C   LIG d   1      -0.276  84.866 111.867  0.00  0.00     0.028 C 
ATOM     12  C   LIG d   1      -0.459  85.668 110.569  0.00  0.00     0.006 C 
ENDBRANCH   8  11
ENDBRANCH   7   8
ENDBRANCH   1   7
BRANCH   6  13
ATOM     13  N   LIG d   1      -0.433  80.510 112.481  0.00  0.00    -0.311 N 
ATOM     14  C   LIG d   1      -1.633  80.924 112.884  0.00  0.00     0.210 C 
ATOM     15  C   LIG d   1      -2.263  80.090 114.004  0.00  0.00     0.109 C 
ATOM     16  O   LIG d   1      -2.250  81.884 112.398  0.00  0.00    -0.276 OA
ATOM     17  H   LIG d   1      -0.021  79.704 112.908  0.00  0.00     0.149 HD
ENDBRANCH   6  13
BRANCH   5  18
ATOM     18  N   LIG d   1      -0.320  79.635 109.556  0.00  0.00     0.381 N 
ATOM     19  H   LIG d   1      -0.533  78.727 109.919  0.00  0.00    -0.090 HD
ATOM     20  H   LIG d   1      -0.053  79.535 108.593  0.00  0.00    -0.090 HD
ATOM     21  H   LIG d   1      -1.120  80.225 109.627  0.00  0.00    -0.090 HD
ENDBRANCH   5  18
BRANCH   3  22
ATOM     22  C   LIG d   1       3.893  81.884 109.199  0.00  0.00     0.382 C 
ATOM     23  O   LIG d   1       4.375  80.941 108.526  0.00  0.00    -0.241 OA
ATOM     24  O   LIG d   1       4.498  82.972 109.252  0.00  0.00    -0.241 OA
ENDBRANCH   3  22
TORSDOF 7
ENDMDL
MODEL 7
REMARK VINA RESULT:      -5.7      2.283      5.413
REMARK  7 active torsions:
REMARK  status: ('A' for Active; 'I' for Inactive)
REMARK    1  A    between atoms: C_2  and  C_3 
REMARK    2  A    between atoms: C_3  and  O_6 
REMARK    3  A    between atoms: C_3  and  C_4 
REMARK    4  A    between atoms: C_7  and  O_6 
REMARK    5  A    between atoms: C_9  and  C_10 
REMARK    6  A    between atoms: N_15  and  C_14 
REMARK    7  A    between atoms: N_20  and  C_19 
REMARK       I    between atoms: C_22  and  N_20 
ROOT
ATOM      1  C   LIG d   1       1.761  81.949 111.477  0.00  0.00     0.161 C 
ATOM      2  C   LIG d   1       2.434  80.742 111.226  0.00  0.00     0.016 C 
ATOM      3  C   LIG d   1       2.849  80.336 109.937  0.00  0.00     0.038 C 
ATOM      4  C   LIG d   1       2.751  81.186 108.825  0.00  0.00     0.028 C 
ATOM      5  C   LIG d   1       1.623  82.205 108.938  0.00  0.00    -0.047 C 
ATOM      6  C   LIG d   1       1.745  82.939 110.293  0.00  0.00     0.091 C 
ENDROOT
BRANCH   1   7
ATOM      7  O   LIG d   1       2.310  82.580 112.650  0.00  0.00    -0.368 OA
BRANCH   7   8
ATOM      8  C   LIG d   1       3.753  82.541 112.779  0.00  0.00     0.119 C 
BRANCH   8   9
ATOM      9  C   LIG d   1       4.080  82.349 114.273  0.00  0.00     0.028 C 
ATOM     10  C   LIG d   1       4.143  80.866 114.674  0.00  0.00     0.006 C 
ENDBRANCH   8   9
BRANCH   8  11
ATOM     11  C   LIG d   1       4.384  83.882 112.394  0.00  0.00     0.028 C 
ATOM     12  C   LIG d   1       3.543  85.087 112.846  0.00  0.00     0.006 C 
ENDBRANCH   8  11
ENDBRANCH   7   8
ENDBRANCH   1   7
BRANCH   6  13
ATOM     13  N   LIG d   1       0.630  83.895 110.522  0.00  0.00    -0.311 N 
ATOM     14  C   LIG d   1       0.728  85.204 110.293  0.00  0.00     0.210 C 
ATOM     15  C   LIG d   1      -0.532  86.013 110.614  0.00  0.00     0.109 C 
ATOM     16  O   LIG d   1       1.729  85.767 109.823  0.00  0.00    -0.276 OA
ATOM     17  H   LIG d   1      -0.229  83.519 110.873  0.00  0.00     0.149 HD
ENDBRANCH   6  13
BRANCH   5  18
ATOM     18  N   LIG d   1       1.723  83.112 107.779  0.00  0.00     0.381 N 
ATOM     19  H   LIG d   1       0.894  83.668 107.712  0.00  0.00    -0.090 HD
ATOM     20  H   LIG d   1       1.802  82.562 106.942  0.00  0.00    -0.090 HD
ATOM     21  H   LIG d   1       2.521  83.701 107.874  0.00  0.00    -0.090 HD
ENDBRANCH   5  18
BRANCH   3  22
ATOM     22  C   LIG d   1       3.332  79.051 109.743  0.00  0.00     0.382 C 
ATOM     23  O   LIG d   1       2.538  78.080 109.720  0.00  0.00    -0.241 OA
ATOM     24  O   LIG d   1       4.556  78.845 109.635  0.00  0.00    -0.241 OA
ENDBRANCH   3  22
TORSDOF 7
ENDMDL
MODEL 8
REMARK VINA RESULT:      -5.5      2.477      5.573
REMARK  7 active torsions:
REMARK  status: ('A' for Active; 'I' for Inactive)
REMARK    1  A    between atoms: C_2  and  C_3 
REMARK    2  A    between atoms: C_3  and  O_6 
REMARK    3  A    between atoms: C_3  and  C_4 
REMARK    4  A    between atoms: C_7  and  O_6 
REMARK    5  A    between atoms: C_9  and  C_10 
REMARK    6  A    between atoms: N_15  and  C_14 
REMARK    7  A    between atoms: N_20  and  C_19 
REMARK       I    between atoms: C_22  and  N_20 
ROOT
ATOM      1  C   LIG d   1       0.919  80.525 111.105  0.00  0.00     0.161 C 
ATOM      2  C   LIG d   1       0.012  79.529 110.707  0.00  0.00     0.016 C 
ATOM      3  C   LIG d   1      -0.882  78.890 111.596  0.00  0.00     0.038 C 
ATOM      4  C   LIG d   1      -1.036  79.314 112.924  0.00  0.00     0.028 C 
ATOM      5  C   LIG d   1       0.213  79.974 113.498  0.00  0.00    -0.047 C 
ATOM      6  C   LIG d   1       0.688  81.078 112.527  0.00  0.00     0.091 C 
ENDROOT
BRANCH   1   7
ATOM      7  O   LIG d   1       0.919  81.598 110.143  0.00  0.00    -0.368 OA
BRANCH   7   8
ATOM      8  C   LIG d   1       1.899  81.502 109.081  0.00  0.00     0.119 C 
BRANCH   8   9
ATOM      9  C   LIG d   1       3.214  81.000 109.708  0.00  0.00     0.028 C 
ATOM     10  C   LIG d   1       4.412  81.142 108.753  0.00  0.00     0.006 C 
ENDBRANCH   8   9
BRANCH   8  11
ATOM     11  C   LIG d   1       2.228  82.880 108.499  0.00  0.00     0.028 C 
ATOM     12  C   LIG d   1       1.868  84.031 109.452  0.00  0.00     0.006 C 
ENDBRANCH   8  11
ENDBRANCH   7   8
ENDBRANCH   1   7
BRANCH   6  13
ATOM     13  N   LIG d   1       1.954  81.718 112.971  0.00  0.00    -0.311 N 
ATOM     14  C   LIG d   1       2.106  83.035 113.095  0.00  0.00     0.210 C 
ATOM     15  C   LIG d   1       3.498  83.486 113.548  0.00  0.00     0.109 C 
ATOM     16  O   LIG d   1       1.210  83.871 112.904  0.00  0.00    -0.276 OA
ATOM     17  H   LIG d   1       2.724  81.112 113.177  0.00  0.00     0.149 HD
ENDBRANCH   6  13
BRANCH   5  18
ATOM     18  N   LIG d   1      -0.130  80.490 114.837  0.00  0.00     0.381 N 
ATOM     19  H   LIG d   1       0.669  80.933 115.244  0.00  0.00    -0.090 HD
ATOM     20  H   LIG d   1      -0.397  79.719 115.424  0.00  0.00    -0.090 HD
ATOM     21  H   LIG d   1      -0.881  81.141 114.769  0.00  0.00    -0.090 HD
ENDBRANCH   5  18
BRANCH   3  22
ATOM     22  C   LIG d   1      -1.606  77.787 111.169  0.00  0.00     0.382 C 
ATOM     23  O   LIG d   1      -2.824  77.906 110.891  0.00  0.00    -0.241 OA
ATOM     24  O   LIG d   1      -1.068  76.666 111.100  0.00  0.00    -0.241 OA
ENDBRANCH   3  22
TORSDOF 7
ENDMDL
MODEL 9
REMARK VINA RESULT:      -5.5      2.748      3.674
REMARK  7 active torsions:
REMARK  status: ('A' for Active; 'I' for Inactive)
REMARK    1  A    between atoms: C_2  and  C_3 
REMARK    2  A    between atoms: C_3  and  O_6 
REMARK    3  A    between atoms: C_3  and  C_4 
REMARK    4  A    between atoms: C_7  and  O_6 
REMARK    5  A    between atoms: C_9  and  C_10 
REMARK    6  A    between atoms: N_15  and  C_14 
REMARK    7  A    between atoms: N_20  and  C_19 
REMARK       I    between atoms: C_22  and  N_20 
ROOT
ATOM      1  C   LIG d   1       2.523  84.506 112.869  0.00  0.00     0.161 C 
ATOM      2  C   LIG d   1       2.926  85.779 113.307  0.00  0.00     0.016 C 
ATOM      3  C   LIG d   1       2.648  86.970 112.598  0.00  0.00     0.038 C 
ATOM      4  C   LIG d   1       1.811  86.985 111.473  0.00  0.00     0.028 C 
ATOM      5  C   LIG d   1       1.798  85.665 110.710  0.00  0.00    -0.047 C 
ATOM      6  C   LIG d   1       1.514  84.514 111.702  0.00  0.00     0.091 C 
ENDROOT
BRANCH   1   7
ATOM      7  O   LIG d   1       2.000  83.751 113.979  0.00  0.00    -0.368 OA
BRANCH   7   8
ATOM      8  C   LIG d   1       2.798  82.624 114.416  0.00  0.00     0.119 C 
BRANCH   8   9
ATOM      9  C   LIG d   1       3.367  82.970 115.806  0.00  0.00     0.028 C 
ATOM     10  C   LIG d   1       4.784  83.561 115.730  0.00  0.00     0.006 C 
ENDBRANCH   8   9
BRANCH   8  11
ATOM     11  C   LIG d   1       4.021  82.425 113.516  0.00  0.00     0.028 C 
ATOM     12  C   LIG d   1       4.005  81.078 112.777  0.00  0.00     0.006 C 
ENDBRANCH   8  11
ENDBRANCH   7   8
ENDBRANCH   1   7
BRANCH   6  13
ATOM     13  N   LIG d   1       1.567  83.179 111.052  0.00  0.00    -0.311 N 
ATOM     14  C   LIG d   1       0.514  82.371 110.948  0.00  0.00     0.210 C 
ATOM     15  C   LIG d   1       0.791  81.031 110.260  0.00  0.00     0.109 C 
ATOM     16  O   LIG d   1      -0.632  82.650 111.332  0.00  0.00    -0.276 OA
ATOM     17  H   LIG d   1       2.452  82.885 110.685  0.00  0.00     0.149 HD
ENDBRANCH   6  13
BRANCH   5  18
ATOM     18  N   LIG d   1       0.783  85.774 109.645  0.00  0.00     0.381 N 
ATOM     19  H   LIG d   1       1.151  86.304 108.880  0.00  0.00    -0.090 HD
ATOM     20  H   LIG d   1      -0.018  86.260 110.009  0.00  0.00    -0.090 HD
ATOM     21  H   LIG d   1       0.517  84.867 109.333  0.00  0.00    -0.090 HD
ENDBRANCH   5  18
BRANCH   3  22
ATOM     22  C   LIG d   1       3.243  88.159 112.992  0.00  0.00     0.382 C 
ATOM     23  O   LIG d   1       2.899  88.706 114.067  0.00  0.00    -0.241 OA
ATOM     24  O   LIG d   1       4.087  88.714 112.264  0.00  0.00    -0.241 OA
ENDBRANCH   3  22
TORSDOF 7
ENDMDL
