MODEL 1
REMARK VINA RESULT:      -5.6      0.000      0.000
REMARK  7 active torsions:
REMARK  status: ('A' for Active; 'I' for Inactive)
REMARK    1  A    between atoms: C_2  and  C_3 
REMARK    2  A    between atoms: C_3  and  O_6 
REMARK    3  A    between atoms: C_3  and  C_4 
REMARK    4  A    between atoms: C_7  and  O_6 
REMARK    5  A    between atoms: C_9  and  C_10 
REMARK    6  A    between atoms: N_15  and  C_14 
REMARK    7  A    between atoms: N_20  and  C_19 
REMARK       I    between atoms: C_22  and  N_20 
ROOT
ATOM      1  C   LIG d   1      -4.842  91.850 117.724  0.00  0.00     0.161 C 
ATOM      2  C   LIG d   1      -5.046  91.007 116.620  0.00  0.00     0.016 C 
ATOM      3  C   LIG d   1      -5.965  91.290 115.583  0.00  0.00     0.038 C 
ATOM      4  C   LIG d   1      -6.637  92.519 115.504  0.00  0.00     0.028 C 
ATOM      5  C   LIG d   1      -6.841  93.187 116.860  0.00  0.00    -0.047 C 
ATOM      6  C   LIG d   1      -5.484  93.248 117.598  0.00  0.00     0.091 C 
ENDROOT
BRANCH   1   7
ATOM      7  O   LIG d   1      -3.431  91.970 117.994  0.00  0.00    -0.368 OA
BRANCH   7   8
ATOM      8  C   LIG d   1      -2.925  91.187 119.103  0.00  0.00     0.119 C 
BRANCH   8   9
ATOM      9  C   LIG d   1      -2.219  92.157 120.070  0.00  0.00     0.028 C 
ATOM     10  C   LIG d   1      -1.210  93.070 119.353  0.00  0.00     0.006 C 
ENDBRANCH   8   9
BRANCH   8  11
ATOM     11  C   LIG d   1      -1.839  90.209 118.645  0.00  0.00     0.028 C 
ATOM     12  C   LIG d   1      -2.414  88.884 118.118  0.00  0.00     0.006 C 
ENDBRANCH   8  11
ENDBRANCH   7   8
ENDBRANCH   1   7
BRANCH   6  13
ATOM     13  N   LIG d   1      -5.610  93.810 118.968  0.00  0.00    -0.311 N 
ATOM     14  C   LIG d   1      -4.812  94.765 119.445  0.00  0.00     0.210 C 
ATOM     15  C   LIG d   1      -5.100  95.187 120.888  0.00  0.00     0.109 C 
ATOM     16  O   LIG d   1      -3.914  95.324 118.798  0.00  0.00    -0.276 OA
ATOM     17  H   LIG d   1      -6.333  93.436 119.551  0.00  0.00     0.149 HD
ENDBRANCH   6  13
BRANCH   5  18
ATOM     18  N   LIG d   1      -7.427  94.518 116.617  0.00  0.00     0.381 N 
ATOM     19  H   LIG d   1      -6.772  95.229 116.874  0.00  0.00    -0.090 HD
ATOM     20  H   LIG d   1      -8.246  94.622 117.190  0.00  0.00    -0.090 HD
ATOM     21  H   LIG d   1      -7.672  94.614 115.656  0.00  0.00    -0.090 HD
ENDBRANCH   5  18
BRANCH   3  22
ATOM     22  C   LIG d   1      -6.249  90.322 114.633  0.00  0.00     0.382 C 
ATOM     23  O   LIG d   1      -7.215  90.478 113.847  0.00  0.00    -0.241 OA
ATOM     24  O   LIG d   1      -5.579  89.273 114.579  0.00  0.00    -0.241 OA
ENDBRANCH   3  22
TORSDOF 7
ENDMDL
MODEL 2
REMARK VINA RESULT:      -5.4      2.447      4.629
REMARK  7 active torsions:
REMARK  status: ('A' for Active; 'I' for Inactive)
REMARK    1  A    between atoms: C_2  and  C_3 
REMARK    2  A    between atoms: C_3  and  O_6 
REMARK    3  A    between atoms: C_3  and  C_4 
REMARK    4  A    between atoms: C_7  and  O_6 
REMARK    5  A    between atoms: C_9  and  C_10 
REMARK    6  A    between atoms: N_15  and  C_14 
REMARK    7  A    between atoms: N_20  and  C_19 
REMARK       I    between atoms: C_22  and  N_20 
ROOT
ATOM      1  C   LIG d   1      -6.532  93.675 117.614  0.00  0.00     0.161 C 
ATOM      2  C   LIG d   1      -7.002  92.513 116.978  0.00  0.00     0.016 C 
ATOM      3  C   LIG d   1      -6.184  91.393 116.701  0.00  0.00     0.038 C 
ATOM      4  C   LIG d   1      -4.869  91.299 117.179  0.00  0.00     0.028 C 
ATOM      5  C   LIG d   1      -4.201  92.654 117.386  0.00  0.00    -0.047 C 
ATOM      6  C   LIG d   1      -5.129  93.546 118.242  0.00  0.00     0.091 C 
ENDROOT
BRANCH   1   7
ATOM      7  O   LIG d   1      -7.486  94.109 118.604  0.00  0.00    -0.368 OA
BRANCH   7   8
ATOM      8  C   LIG d   1      -8.522  95.009 118.138  0.00  0.00     0.119 C 
BRANCH   8   9
ATOM      9  C   LIG d   1      -7.840  96.332 117.738  0.00  0.00     0.028 C 
ATOM     10  C   LIG d   1      -7.421  97.169 118.959  0.00  0.00     0.006 C 
ENDBRANCH   8   9
BRANCH   8  11
ATOM     11  C   LIG d   1      -9.489  95.376 119.267  0.00  0.00     0.028 C 
ATOM     12  C   LIG d   1      -9.811  94.187 120.187  0.00  0.00     0.006 C 
ENDBRANCH   8  11
ENDBRANCH   7   8
ENDBRANCH   1   7
BRANCH   6  13
ATOM     13  N   LIG d   1      -4.588  94.919 118.421  0.00  0.00    -0.311 N 
ATOM     14  C   LIG d   1      -3.879  95.295 119.484  0.00  0.00     0.210 C 
ATOM     15  C   LIG d   1      -3.435  96.761 119.480  0.00  0.00     0.109 C 
ATOM     16  O   LIG d   1      -3.549  94.545 120.415  0.00  0.00    -0.276 OA
ATOM     17  H   LIG d   1      -4.783  95.584 117.698  0.00  0.00     0.149 HD
ENDBRANCH   6  13
BRANCH   5  18
ATOM     18  N   LIG d   1      -2.888  92.413 118.015  0.00  0.00     0.381 N 
ATOM     19  H   LIG d   1      -2.170  92.435 117.319  0.00  0.00    -0.090 HD
ATOM     20  H   LIG d   1      -2.892  91.501 118.436  0.00  0.00    -0.090 HD
ATOM     21  H   LIG d   1      -2.710  93.106 118.708  0.00  0.00    -0.090 HD
ENDBRANCH   5  18
BRANCH   3  22
ATOM     22  C   LIG d   1      -6.669  90.369 115.902  0.00  0.00     0.382 C 
ATOM     23  O   LIG d   1      -7.907  90.191 115.795  0.00  0.00    -0.241 OA
ATOM     24  O   LIG d   1      -5.885  89.593 115.324  0.00  0.00    -0.241 OA
ENDBRANCH   3  22
TORSDOF 7
ENDMDL
MODEL 3
REMARK VINA RESULT:      -5.0     14.629     16.782
REMARK  7 active torsions:
REMARK  status: ('A' for Active; 'I' for Inactive)
REMARK    1  A    between atoms: C_2  and  C_3 
REMARK    2  A    between atoms: C_3  and  O_6 
REMARK    3  A    between atoms: C_3  and  C_4 
REMARK    4  A    between atoms: C_7  and  O_6 
REMARK    5  A    between atoms: C_9  and  C_10 
REMARK    6  A    between atoms: N_15  and  C_14 
REMARK    7  A    between atoms: N_20  and  C_19 
REMARK       I    between atoms: C_22  and  N_20 
ROOT
ATOM      1  C   LIG d   1      -2.834  77.041 116.775  0.00  0.00     0.161 C 
ATOM      2  C   LIG d   1      -3.081  77.877 115.673  0.00  0.00     0.016 C 
ATOM      3  C   LIG d   1      -2.245  77.931 114.535  0.00  0.00     0.038 C 
ATOM      4  C   LIG d   1      -1.180  77.035 114.354  0.00  0.00     0.028 C 
ATOM      5  C   LIG d   1      -0.594  76.520 115.663  0.00  0.00    -0.047 C 
ATOM      6  C   LIG d   1      -1.740  75.978 116.548  0.00  0.00     0.091 C 
ENDROOT
BRANCH   1   7
ATOM      7  O   LIG d   1      -4.062  76.414 117.198  0.00  0.00    -0.368 OA
BRANCH   7   8
ATOM      8  C   LIG d   1      -5.139  76.406 116.229  0.00  0.00     0.119 C 
BRANCH   8   9
ATOM      9  C   LIG d   1      -6.440  76.747 116.982  0.00  0.00     0.028 C 
ATOM     10  C   LIG d   1      -7.665  76.027 116.392  0.00  0.00     0.006 C 
ENDBRANCH   8   9
BRANCH   8  11
ATOM     11  C   LIG d   1      -5.360  75.004 115.653  0.00  0.00     0.028 C 
ATOM     12  C   LIG d   1      -4.804  74.853 114.228  0.00  0.00     0.006 C 
ENDBRANCH   8  11
ENDBRANCH   7   8
ENDBRANCH   1   7
BRANCH   6  13
ATOM     13  N   LIG d   1      -1.263  75.530 117.882  0.00  0.00    -0.311 N 
ATOM     14  C   LIG d   1      -0.894  74.278 118.147  0.00  0.00     0.210 C 
ATOM     15  C   LIG d   1      -0.454  74.026 119.593  0.00  0.00     0.109 C 
ATOM     16  O   LIG d   1      -0.858  73.360 117.314  0.00  0.00    -0.276 OA
ATOM     17  H   LIG d   1      -1.231  76.218 118.609  0.00  0.00     0.149 HD
ENDBRANCH   6  13
BRANCH   5  18
ATOM     18  N   LIG d   1       0.412  75.494 115.328  0.00  0.00     0.381 N 
ATOM     19  H   LIG d   1       1.096  75.439 116.056  0.00  0.00    -0.090 HD
ATOM     20  H   LIG d   1       0.877  75.761 114.478  0.00  0.00    -0.090 HD
ATOM     21  H   LIG d   1      -0.030  74.609 115.209  0.00  0.00    -0.090 HD
ENDBRANCH   5  18
BRANCH   3  22
ATOM     22  C   LIG d   1      -2.447  78.915 113.579  0.00  0.00     0.382 C 
ATOM     23  O   LIG d   1      -1.904  80.038 113.712  0.00  0.00    -0.241 OA
ATOM     24  O   LIG d   1      -3.202  78.709 112.610  0.00  0.00    -0.241 OA
ENDBRANCH   3  22
TORSDOF 7
ENDMDL
MODEL 4
REMARK VINA RESULT:      -5.0     14.637     17.459
REMARK  7 active torsions:
REMARK  status: ('A' for Active; 'I' for Inactive)
REMARK    1  A    between atoms: C_2  and  C_3 
REMARK    2  A    between atoms: C_3  and  O_6 
REMARK    3  A    between atoms: C_3  and  C_4 
REMARK    4  A    between atoms: C_7  and  O_6 
REMARK    5  A    between atoms: C_9  and  C_10 
REMARK    6  A    between atoms: N_15  and  C_14 
REMARK    7  A    between atoms: N_20  and  C_19 
REMARK       I    between atoms: C_22  and  N_20 
ROOT
ATOM      1  C   LIG d   1      -2.147  75.562 115.930  0.00  0.00     0.161 C 
ATOM      2  C   LIG d   1      -1.906  74.659 116.979  0.00  0.00     0.016 C 
ATOM      3  C   LIG d   1      -0.775  74.731 117.824  0.00  0.00     0.038 C 
ATOM      4  C   LIG d   1       0.121  75.809 117.773  0.00  0.00     0.028 C 
ATOM      5  C   LIG d   1       0.195  76.471 116.401  0.00  0.00    -0.047 C 
ATOM      6  C   LIG d   1      -1.238  76.810 115.930  0.00  0.00     0.091 C 
ENDROOT
BRANCH   1   7
ATOM      7  O   LIG d   1      -3.534  75.953 115.930  0.00  0.00    -0.368 OA
BRANCH   7   8
ATOM      8  C   LIG d   1      -4.498  74.880 115.793  0.00  0.00     0.119 C 
BRANCH   8   9
ATOM      9  C   LIG d   1      -4.833  74.748 114.295  0.00  0.00     0.028 C 
ATOM     10  C   LIG d   1      -5.523  76.003 113.735  0.00  0.00     0.006 C 
ENDBRANCH   8   9
BRANCH   8  11
ATOM     11  C   LIG d   1      -5.823  75.232 116.476  0.00  0.00     0.028 C 
ATOM     12  C   LIG d   1      -6.679  73.995 116.789  0.00  0.00     0.006 C 
ENDBRANCH   8  11
ENDBRANCH   7   8
ENDBRANCH   1   7
BRANCH   6  13
ATOM     13  N   LIG d   1      -1.263  77.384 114.560  0.00  0.00    -0.311 N 
ATOM     14  C   LIG d   1      -1.239  78.693 114.313  0.00  0.00     0.210 C 
ATOM     15  C   LIG d   1      -1.292  79.072 112.829  0.00  0.00     0.109 C 
ATOM     16  O   LIG d   1      -1.145  79.574 115.180  0.00  0.00    -0.276 OA
ATOM     17  H   LIG d   1      -1.307  76.739 113.795  0.00  0.00     0.149 HD
ENDBRANCH   6  13
BRANCH   5  18
ATOM     18  N   LIG d   1       1.058  77.660 116.526  0.00  0.00     0.381 N 
ATOM     19  H   LIG d   1       0.736  78.236 117.279  0.00  0.00    -0.090 HD
ATOM     20  H   LIG d   1       1.003  78.193 115.676  0.00  0.00    -0.090 HD
ATOM     21  H   LIG d   1       2.001  77.382 116.691  0.00  0.00    -0.090 HD
ENDBRANCH   5  18
BRANCH   3  22
ATOM     22  C   LIG d   1      -0.510  73.696 118.707  0.00  0.00     0.382 C 
ATOM     23  O   LIG d   1      -0.355  72.528 118.276  0.00  0.00    -0.241 OA
ATOM     24  O   LIG d   1      -0.468  73.907 119.934  0.00  0.00    -0.241 OA
ENDBRANCH   3  22
TORSDOF 7
ENDMDL
MODEL 5
REMARK VINA RESULT:      -4.9     31.886     34.181
REMARK  7 active torsions:
REMARK  status: ('A' for Active; 'I' for Inactive)
REMARK    1  A    between atoms: C_2  and  C_3 
REMARK    2  A    between atoms: C_3  and  O_6 
REMARK    3  A    between atoms: C_3  and  C_4 
REMARK    4  A    between atoms: C_7  and  O_6 
REMARK    5  A    between atoms: C_9  and  C_10 
REMARK    6  A    between atoms: N_15  and  C_14 
REMARK    7  A    between atoms: N_20  and  C_19 
REMARK       I    between atoms: C_22  and  N_20 
ROOT
ATOM      1  C   LIG d   1      -1.266  58.907 117.948  0.00  0.00     0.161 C 
ATOM      2  C   LIG d   1       0.055  58.587 118.304  0.00  0.00     0.016 C 
ATOM      3  C   LIG d   1       0.680  59.058 119.482  0.00  0.00     0.038 C 
ATOM      4  C   LIG d   1      -0.029  59.764 120.465  0.00  0.00     0.028 C 
ATOM      5  C   LIG d   1      -1.221  60.539 119.914  0.00  0.00    -0.047 C 
ATOM      6  C   LIG d   1      -2.090  59.584 119.063  0.00  0.00     0.091 C 
ENDROOT
BRANCH   1   7
ATOM      7  O   LIG d   1      -1.943  57.727 117.471  0.00  0.00    -0.368 OA
BRANCH   7   8
ATOM      8  C   LIG d   1      -2.299  56.746 118.476  0.00  0.00     0.119 C 
BRANCH   8   9
ATOM      9  C   LIG d   1      -1.573  55.435 118.120  0.00  0.00     0.028 C 
ATOM     10  C   LIG d   1      -0.468  55.083 119.130  0.00  0.00     0.006 C 
ENDBRANCH   8   9
BRANCH   8  11
ATOM     11  C   LIG d   1      -3.792  56.411 118.422  0.00  0.00     0.028 C 
ATOM     12  C   LIG d   1      -4.076  54.919 118.658  0.00  0.00     0.006 C 
ENDBRANCH   8  11
ENDBRANCH   7   8
ENDBRANCH   1   7
BRANCH   6  13
ATOM     13  N   LIG d   1      -3.233  60.281 118.418  0.00  0.00    -0.311 N 
ATOM     14  C   LIG d   1      -4.505  60.058 118.742  0.00  0.00     0.210 C 
ATOM     15  C   LIG d   1      -5.528  60.869 117.939  0.00  0.00     0.109 C 
ATOM     16  O   LIG d   1      -4.882  59.290 119.639  0.00  0.00    -0.276 OA
ATOM     17  H   LIG d   1      -3.015  60.945 117.700  0.00  0.00     0.149 HD
ENDBRANCH   6  13
BRANCH   5  18
ATOM     18  N   LIG d   1      -1.948  61.113 121.062  0.00  0.00     0.381 N 
ATOM     19  H   LIG d   1      -1.409  60.998 121.897  0.00  0.00    -0.090 HD
ATOM     20  H   LIG d   1      -2.817  60.621 121.177  0.00  0.00    -0.090 HD
ATOM     21  H   LIG d   1      -2.126  62.081 120.903  0.00  0.00    -0.090 HD
ENDBRANCH   5  18
BRANCH   3  22
ATOM     22  C   LIG d   1       2.040  58.859 119.666  0.00  0.00     0.382 C 
ATOM     23  O   LIG d   1       2.530  58.910 120.819  0.00  0.00    -0.241 OA
ATOM     24  O   LIG d   1       2.788  58.672 118.688  0.00  0.00    -0.241 OA
ENDBRANCH   3  22
TORSDOF 7
ENDMDL
MODEL 6
REMARK VINA RESULT:      -4.8     12.951     15.523
REMARK  7 active torsions:
REMARK  status: ('A' for Active; 'I' for Inactive)
REMARK    1  A    between atoms: C_2  and  C_3 
REMARK    2  A    between atoms: C_3  and  O_6 
REMARK    3  A    between atoms: C_3  and  C_4 
REMARK    4  A    between atoms: C_7  and  O_6 
REMARK    5  A    between atoms: C_9  and  C_10 
REMARK    6  A    between atoms: N_15  and  C_14 
REMARK    7  A    between atoms: N_20  and  C_19 
REMARK       I    between atoms: C_22  and  N_20 
ROOT
ATOM      1  C   LIG d   1      -4.982  77.615 116.524  0.00  0.00     0.161 C 
ATOM      2  C   LIG d   1      -4.101  77.663 115.431  0.00  0.00     0.016 C 
ATOM      3  C   LIG d   1      -3.794  76.539 114.630  0.00  0.00     0.038 C 
ATOM      4  C   LIG d   1      -4.469  75.318 114.776  0.00  0.00     0.028 C 
ATOM      5  C   LIG d   1      -4.997  75.083 116.187  0.00  0.00    -0.047 C 
ATOM      6  C   LIG d   1      -5.812  76.319 116.630  0.00  0.00     0.091 C 
ENDROOT
BRANCH   1   7
ATOM      7  O   LIG d   1      -5.850  78.766 116.502  0.00  0.00    -0.368 OA
BRANCH   7   8
ATOM      8  C   LIG d   1      -5.357  79.949 117.177  0.00  0.00     0.119 C 
BRANCH   8   9
ATOM      9  C   LIG d   1      -4.714  79.493 118.501  0.00  0.00     0.028 C 
ATOM     10  C   LIG d   1      -3.498  80.350 118.889  0.00  0.00     0.006 C 
ENDBRANCH   8   9
BRANCH   8  11
ATOM     11  C   LIG d   1      -6.506  80.878 117.583  0.00  0.00     0.028 C 
ATOM     12  C   LIG d   1      -7.750  80.113 118.061  0.00  0.00     0.006 C 
ENDBRANCH   8  11
ENDBRANCH   7   8
ENDBRANCH   1   7
BRANCH   6  13
ATOM     13  N   LIG d   1      -6.295  76.207 118.031  0.00  0.00    -0.311 N 
ATOM     14  C   LIG d   1      -7.566  76.389 118.386  0.00  0.00     0.210 C 
ATOM     15  C   LIG d   1      -7.846  76.247 119.885  0.00  0.00     0.109 C 
ATOM     16  O   LIG d   1      -8.494  76.622 117.596  0.00  0.00    -0.276 OA
ATOM     17  H   LIG d   1      -5.614  75.990 118.732  0.00  0.00     0.149 HD
ENDBRANCH   6  13
BRANCH   5  18
ATOM     18  N   LIG d   1      -5.795  73.842 116.163  0.00  0.00     0.381 N 
ATOM     19  H   LIG d   1      -5.231  73.082 115.839  0.00  0.00    -0.090 HD
ATOM     20  H   LIG d   1      -6.562  73.961 115.524  0.00  0.00    -0.090 HD
ATOM     21  H   LIG d   1      -6.142  73.642 117.075  0.00  0.00    -0.090 HD
ENDBRANCH   5  18
BRANCH   3  22
ATOM     22  C   LIG d   1      -2.773  76.620 113.695  0.00  0.00     0.382 C 
ATOM     23  O   LIG d   1      -1.620  76.225 113.991  0.00  0.00    -0.241 OA
ATOM     24  O   LIG d   1      -2.981  77.123 112.575  0.00  0.00    -0.241 OA
ENDBRANCH   3  22
TORSDOF 7
ENDMDL
MODEL 7
REMARK VINA RESULT:      -4.7     32.690     35.495
REMARK  7 active torsions:
REMARK  status: ('A' for Active; 'I' for Inactive)
REMARK    1  A    between atoms: C_2  and  C_3 
REMARK    2  A    between atoms: C_3  and  O_6 
REMARK    3  A    between atoms: C_3  and  C_4 
REMARK    4  A    between atoms: C_7  and  O_6 
REMARK    5  A    between atoms: C_9  and  C_10 
REMARK    6  A    between atoms: N_15  and  C_14 
REMARK    7  A    between atoms: N_20  and  C_19 
REMARK       I    between atoms: C_22  and  N_20 
ROOT
ATOM      1  C   LIG d   1      -1.168  57.517 119.657  0.00  0.00     0.161 C 
ATOM      2  C   LIG d   1      -2.420  58.113 119.430  0.00  0.00     0.016 C 
ATOM      3  C   LIG d   1      -2.699  58.937 118.316  0.00  0.00     0.038 C 
ATOM      4  C   LIG d   1      -1.783  59.099 117.266  0.00  0.00     0.028 C 
ATOM      5  C   LIG d   1      -0.331  58.926 117.696  0.00  0.00    -0.047 C 
ATOM      6  C   LIG d   1      -0.191  57.592 118.465  0.00  0.00     0.091 C 
ENDROOT
BRANCH   1   7
ATOM      7  O   LIG d   1      -1.346  56.148 120.073  0.00  0.00    -0.368 OA
BRANCH   7   8
ATOM      8  C   LIG d   1      -1.710  55.208 119.032  0.00  0.00     0.119 C 
BRANCH   8   9
ATOM      9  C   LIG d   1      -3.125  54.688 119.351  0.00  0.00     0.028 C 
ATOM     10  C   LIG d   1      -4.151  55.081 118.276  0.00  0.00     0.006 C 
ENDBRANCH   8   9
BRANCH   8  11
ATOM     11  C   LIG d   1      -0.808  53.971 119.059  0.00  0.00     0.028 C 
ATOM     12  C   LIG d   1       0.102  53.924 120.296  0.00  0.00     0.006 C 
ENDBRANCH   8  11
ENDBRANCH   7   8
ENDBRANCH   1   7
BRANCH   6  13
ATOM     13  N   LIG d   1       1.182  57.384 118.995  0.00  0.00    -0.311 N 
ATOM     14  C   LIG d   1       2.033  56.489 118.497  0.00  0.00     0.210 C 
ATOM     15  C   LIG d   1       3.390  56.423 119.203  0.00  0.00     0.109 C 
ATOM     16  O   LIG d   1       1.803  55.764 117.516  0.00  0.00    -0.276 OA
ATOM     17  H   LIG d   1       1.462  57.952 119.771  0.00  0.00     0.149 HD
ENDBRANCH   6  13
BRANCH   5  18
ATOM     18  N   LIG d   1       0.504  58.984 116.482  0.00  0.00     0.381 N 
ATOM     19  H   LIG d   1       1.436  59.255 116.724  0.00  0.00    -0.090 HD
ATOM     20  H   LIG d   1       0.126  59.677 115.860  0.00  0.00    -0.090 HD
ATOM     21  H   LIG d   1       0.515  58.095 116.033  0.00  0.00    -0.090 HD
ENDBRANCH   5  18
BRANCH   3  22
ATOM     22  C   LIG d   1      -3.892  59.641 118.264  0.00  0.00     0.382 C 
ATOM     23  O   LIG d   1      -4.870  59.270 118.958  0.00  0.00    -0.241 OA
ATOM     24  O   LIG d   1      -4.017  60.617 117.500  0.00  0.00    -0.241 OA
ENDBRANCH   3  22
TORSDOF 7
ENDMDL
MODEL 8
REMARK VINA RESULT:      -4.7     12.841     14.970
REMARK  7 active torsions:
REMARK  status: ('A' for Active; 'I' for Inactive)
REMARK    1  A    between atoms: C_2  and  C_3 
REMARK    2  A    between atoms: C_3  and  O_6 
REMARK    3  A    between atoms: C_3  and  C_4 
REMARK    4  A    between atoms: C_7  and  O_6 
REMARK    5  A    between atoms: C_9  and  C_10 
REMARK    6  A    between atoms: N_15  and  C_14 
REMARK    7  A    between atoms: N_20  and  C_19 
REMARK       I    between atoms: C_22  and  N_20 
ROOT
ATOM      1  C   LIG d   1      -7.644  77.465 119.047  0.00  0.00     0.161 C 
ATOM      2  C   LIG d   1      -8.868  76.778 119.100  0.00  0.00     0.016 C 
ATOM      3  C   LIG d   1     -10.123  77.414 118.961  0.00  0.00     0.038 C 
ATOM      4  C   LIG d   1     -10.234  78.766 118.605  0.00  0.00     0.028 C 
ATOM      5  C   LIG d   1      -9.037  79.606 119.037  0.00  0.00    -0.047 C 
ATOM      6  C   LIG d   1      -7.741  78.922 118.548  0.00  0.00     0.091 C 
ENDROOT
BRANCH   1   7
ATOM      7  O   LIG d   1      -6.702  76.723 118.246  0.00  0.00    -0.368 OA
BRANCH   7   8
ATOM      8  C   LIG d   1      -6.688  77.031 116.830  0.00  0.00     0.119 C 
BRANCH   8   9
ATOM      9  C   LIG d   1      -7.135  75.764 116.076  0.00  0.00     0.028 C 
ATOM     10  C   LIG d   1      -6.770  74.473 116.829  0.00  0.00     0.006 C 
ENDBRANCH   8   9
BRANCH   8  11
ATOM     11  C   LIG d   1      -5.266  77.317 116.337  0.00  0.00     0.028 C 
ATOM     12  C   LIG d   1      -4.214  77.198 117.450  0.00  0.00     0.006 C 
ENDBRANCH   8  11
ENDBRANCH   7   8
ENDBRANCH   1   7
BRANCH   6  13
ATOM     13  N   LIG d   1      -6.518  79.634 119.001  0.00  0.00    -0.311 N 
ATOM     14  C   LIG d   1      -5.856  80.509 118.246  0.00  0.00     0.210 C 
ATOM     15  C   LIG d   1      -4.610  81.115 118.898  0.00  0.00     0.109 C 
ATOM     16  O   LIG d   1      -6.202  80.865 117.109  0.00  0.00    -0.276 OA
ATOM     17  H   LIG d   1      -6.185  79.429 119.923  0.00  0.00     0.149 HD
ENDBRANCH   6  13
BRANCH   5  18
ATOM     18  N   LIG d   1      -9.221  80.961 118.483  0.00  0.00     0.381 N 
ATOM     19  H   LIG d   1      -9.231  81.632 119.225  0.00  0.00    -0.090 HD
ATOM     20  H   LIG d   1     -10.106  81.001 118.009  0.00  0.00    -0.090 HD
ATOM     21  H   LIG d   1      -8.484  81.171 117.846  0.00  0.00    -0.090 HD
ENDBRANCH   5  18
BRANCH   3  22
ATOM     22  C   LIG d   1     -11.286  76.703 119.218  0.00  0.00     0.382 C 
ATOM     23  O   LIG d   1     -12.166  76.599 118.330  0.00  0.00    -0.241 OA
ATOM     24  O   LIG d   1     -11.484  76.201 120.341  0.00  0.00    -0.241 OA
ENDBRANCH   3  22
TORSDOF 7
ENDMDL
MODEL 9
REMARK VINA RESULT:      -4.7     13.196     15.224
REMARK  7 active torsions:
REMARK  status: ('A' for Active; 'I' for Inactive)
REMARK    1  A    between atoms: C_2  and  C_3 
REMARK    2  A    between atoms: C_3  and  O_6 
REMARK    3  A    between atoms: C_3  and  C_4 
REMARK    4  A    between atoms: C_7  and  O_6 
REMARK    5  A    between atoms: C_9  and  C_10 
REMARK    6  A    between atoms: N_15  and  C_14 
REMARK    7  A    between atoms: N_20  and  C_19 
REMARK       I    between atoms: C_22  and  N_20 
ROOT
ATOM      1  C   LIG d   1      -6.630  77.453 116.856  0.00  0.00     0.161 C 
ATOM      2  C   LIG d   1      -7.999  77.426 117.171  0.00  0.00     0.016 C 
ATOM      3  C   LIG d   1      -8.629  78.393 117.987  0.00  0.00     0.038 C 
ATOM      4  C   LIG d   1      -7.959  79.545 118.424  0.00  0.00     0.028 C 
ATOM      5  C   LIG d   1      -6.451  79.357 118.551  0.00  0.00    -0.047 C 
ATOM      6  C   LIG d   1      -5.906  78.763 117.232  0.00  0.00     0.091 C 
ENDROOT
BRANCH   1   7
ATOM      7  O   LIG d   1      -6.444  77.162 115.457  0.00  0.00    -0.368 OA
BRANCH   7   8
ATOM      8  C   LIG d   1      -6.219  75.771 115.120  0.00  0.00     0.119 C 
BRANCH   8   9
ATOM      9  C   LIG d   1      -5.722  75.060 116.394  0.00  0.00     0.028 C 
ATOM     10  C   LIG d   1      -6.594  73.851 116.769  0.00  0.00     0.006 C 
ENDBRANCH   8   9
BRANCH   8  11
ATOM     11  C   LIG d   1      -5.084  75.620 114.103  0.00  0.00     0.028 C 
ATOM     12  C   LIG d   1      -3.711  75.427 114.766  0.00  0.00     0.006 C 
ENDBRANCH   8  11
ENDBRANCH   7   8
ENDBRANCH   1   7
BRANCH   6  13
ATOM     13  N   LIG d   1      -4.451  78.469 117.301  0.00  0.00    -0.311 N 
ATOM     14  C   LIG d   1      -3.591  78.793 116.337  0.00  0.00     0.210 C 
ATOM     15  C   LIG d   1      -2.139  78.381 116.600  0.00  0.00     0.109 C 
ATOM     16  O   LIG d   1      -3.887  79.411 115.303  0.00  0.00    -0.276 OA
ATOM     17  H   LIG d   1      -4.119  77.998 118.120  0.00  0.00     0.149 HD
ENDBRANCH   6  13
BRANCH   5  18
ATOM     18  N   LIG d   1      -5.864  80.670 118.880  0.00  0.00     0.381 N 
ATOM     19  H   LIG d   1      -6.500  81.192 119.450  0.00  0.00    -0.090 HD
ATOM     20  H   LIG d   1      -5.713  81.181 118.028  0.00  0.00    -0.090 HD
ATOM     21  H   LIG d   1      -5.000  80.547 119.360  0.00  0.00    -0.090 HD
ENDBRANCH   5  18
BRANCH   3  22
ATOM     22  C   LIG d   1      -9.935  78.191 118.408  0.00  0.00     0.382 C 
ATOM     23  O   LIG d   1     -10.545  79.102 119.017  0.00  0.00    -0.241 OA
ATOM     24  O   LIG d   1     -10.495  77.093 118.226  0.00  0.00    -0.241 OA
ENDBRANCH   3  22
TORSDOF 7
ENDMDL
