MODEL 1
REMARK VINA RESULT:      -6.5      0.000      0.000
REMARK  7 active torsions:
REMARK  status: ('A' for Active; 'I' for Inactive)
REMARK    1  A    between atoms: C_2  and  C_3 
REMARK    2  A    between atoms: C_3  and  O_6 
REMARK    3  A    between atoms: C_3  and  C_4 
REMARK    4  A    between atoms: C_7  and  O_6 
REMARK    5  A    between atoms: C_9  and  C_10 
REMARK    6  A    between atoms: N_15  and  C_14 
REMARK    7  A    between atoms: N_20  and  C_19 
REMARK       I    between atoms: C_22  and  N_20 
ROOT
ATOM      1  C   LIG d   1       0.104  82.960 110.599  0.00  0.00     0.161 C 
ATOM      2  C   LIG d   1      -0.130  84.327 110.819  0.00  0.00     0.016 C 
ATOM      3  C   LIG d   1       0.324  85.344 109.948  0.00  0.00     0.038 C 
ATOM      4  C   LIG d   1       0.917  85.051 108.710  0.00  0.00     0.028 C 
ATOM      5  C   LIG d   1       1.624  83.700 108.682  0.00  0.00    -0.047 C 
ATOM      6  C   LIG d   1       0.652  82.614 109.198  0.00  0.00     0.091 C 
ENDROOT
BRANCH   1   7
ATOM      7  O   LIG d   1      -1.097  82.209 110.866  0.00  0.00    -0.368 OA
BRANCH   7   8
ATOM      8  C   LIG d   1      -1.254  81.718 112.220  0.00  0.00     0.119 C 
BRANCH   8   9
ATOM      9  C   LIG d   1      -0.041  80.820 112.530  0.00  0.00     0.028 C 
ATOM     10  C   LIG d   1       0.682  81.235 113.822  0.00  0.00     0.006 C 
ENDBRANCH   8   9
BRANCH   8  11
ATOM     11  C   LIG d   1      -2.477  80.806 112.343  0.00  0.00     0.028 C 
ATOM     12  C   LIG d   1      -2.203  79.373 111.859  0.00  0.00     0.006 C 
ENDBRANCH   8  11
ENDBRANCH   7   8
ENDBRANCH   1   7
BRANCH   6  13
ATOM     13  N   LIG d   1       1.291  81.275 109.282  0.00  0.00    -0.311 N 
ATOM     14  C   LIG d   1       0.696  80.152 108.885  0.00  0.00     0.210 C 
ATOM     15  C   LIG d   1       1.524  78.878 109.078  0.00  0.00     0.109 C 
ATOM     16  O   LIG d   1      -0.427  80.094 108.360  0.00  0.00    -0.276 OA
ATOM     17  H   LIG d   1       2.215  81.234 109.667  0.00  0.00     0.149 HD
ENDBRANCH   6  13
BRANCH   5  18
ATOM     18  N   LIG d   1       2.075  83.462 107.298  0.00  0.00     0.381 N 
ATOM     19  H   LIG d   1       2.840  82.817 107.298  0.00  0.00    -0.090 HD
ATOM     20  H   LIG d   1       2.395  84.330 106.907  0.00  0.00    -0.090 HD
ATOM     21  H   LIG d   1       1.325  83.100 106.752  0.00  0.00    -0.090 HD
ENDBRANCH   5  18
BRANCH   3  22
ATOM     22  C   LIG d   1       0.223  86.673 110.331  0.00  0.00     0.382 C 
ATOM     23  O   LIG d   1       1.260  87.361 110.489  0.00  0.00    -0.241 OA
ATOM     24  O   LIG d   1      -0.891  87.180 110.563  0.00  0.00    -0.241 OA
ENDBRANCH   3  22
TORSDOF 7
ENDMDL
MODEL 2
REMARK VINA RESULT:      -6.5      2.314      5.176
REMARK  7 active torsions:
REMARK  status: ('A' for Active; 'I' for Inactive)
REMARK    1  A    between atoms: C_2  and  C_3 
REMARK    2  A    between atoms: C_3  and  O_6 
REMARK    3  A    between atoms: C_3  and  C_4 
REMARK    4  A    between atoms: C_7  and  O_6 
REMARK    5  A    between atoms: C_9  and  C_10 
REMARK    6  A    between atoms: N_15  and  C_14 
REMARK    7  A    between atoms: N_20  and  C_19 
REMARK       I    between atoms: C_22  and  N_20 
ROOT
ATOM      1  C   LIG d   1      -0.177  82.818 111.166  0.00  0.00     0.161 C 
ATOM      2  C   LIG d   1      -1.317  82.541 111.939  0.00  0.00     0.016 C 
ATOM      3  C   LIG d   1      -1.856  81.243 112.093  0.00  0.00     0.038 C 
ATOM      4  C   LIG d   1      -1.198  80.104 111.603  0.00  0.00     0.028 C 
ATOM      5  C   LIG d   1      -0.319  80.388 110.390  0.00  0.00    -0.047 C 
ATOM      6  C   LIG d   1       0.617  81.575 110.715  0.00  0.00     0.091 C 
ENDROOT
BRANCH   1   7
ATOM      7  O   LIG d   1       0.683  83.733 111.874  0.00  0.00    -0.368 OA
BRANCH   7   8
ATOM      8  C   LIG d   1       0.779  85.071 111.327  0.00  0.00     0.119 C 
BRANCH   8   9
ATOM      9  C   LIG d   1      -0.146  85.136 110.097  0.00  0.00     0.028 C 
ATOM     10  C   LIG d   1       0.511  85.853 108.905  0.00  0.00     0.006 C 
ENDBRANCH   8   9
BRANCH   8  11
ATOM     11  C   LIG d   1       2.186  85.354 110.792  0.00  0.00     0.028 C 
ATOM     12  C   LIG d   1       3.293  84.807 111.707  0.00  0.00     0.006 C 
ENDBRANCH   8  11
ENDBRANCH   7   8
ENDBRANCH   1   7
BRANCH   6  13
ATOM     13  N   LIG d   1       1.453  81.972 109.553  0.00  0.00    -0.311 N 
ATOM     14  C   LIG d   1       2.782  81.876 109.539  0.00  0.00     0.210 C 
ATOM     15  C   LIG d   1       3.451  82.359 108.248  0.00  0.00     0.109 C 
ATOM     16  O   LIG d   1       3.467  81.407 110.460  0.00  0.00    -0.276 OA
ATOM     17  H   LIG d   1       0.977  82.335 108.750  0.00  0.00     0.149 HD
ENDBRANCH   6  13
BRANCH   5  18
ATOM     18  N   LIG d   1       0.412  79.147 110.069  0.00  0.00     0.381 N 
ATOM     19  H   LIG d   1       1.018  78.905 110.827  0.00  0.00    -0.090 HD
ATOM     20  H   LIG d   1       0.975  79.304 109.252  0.00  0.00    -0.090 HD
ATOM     21  H   LIG d   1      -0.233  78.406 109.900  0.00  0.00    -0.090 HD
ENDBRANCH   5  18
BRANCH   3  22
ATOM     22  C   LIG d   1      -3.087  81.078 112.709  0.00  0.00     0.382 C 
ATOM     23  O   LIG d   1      -3.710  82.078 113.141  0.00  0.00    -0.241 OA
ATOM     24  O   LIG d   1      -3.562  79.939 112.878  0.00  0.00    -0.241 OA
ENDBRANCH   3  22
TORSDOF 7
ENDMDL
MODEL 3
REMARK VINA RESULT:      -6.4      3.093      6.147
REMARK  7 active torsions:
REMARK  status: ('A' for Active; 'I' for Inactive)
REMARK    1  A    between atoms: C_2  and  C_3 
REMARK    2  A    between atoms: C_3  and  O_6 
REMARK    3  A    between atoms: C_3  and  C_4 
REMARK    4  A    between atoms: C_7  and  O_6 
REMARK    5  A    between atoms: C_9  and  C_10 
REMARK    6  A    between atoms: N_15  and  C_14 
REMARK    7  A    between atoms: N_20  and  C_19 
REMARK       I    between atoms: C_22  and  N_20 
ROOT
ATOM      1  C   LIG d   1       1.591  84.273 111.696  0.00  0.00     0.161 C 
ATOM      2  C   LIG d   1       0.531  83.351 111.716  0.00  0.00     0.016 C 
ATOM      3  C   LIG d   1      -0.578  83.460 112.586  0.00  0.00     0.038 C 
ATOM      4  C   LIG d   1      -0.778  84.588 113.395  0.00  0.00     0.028 C 
ATOM      5  C   LIG d   1       0.517  85.298 113.776  0.00  0.00    -0.047 C 
ATOM      6  C   LIG d   1       1.336  85.569 112.493  0.00  0.00     0.091 C 
ENDROOT
BRANCH   1   7
ATOM      7  O   LIG d   1       1.942  84.583 110.333  0.00  0.00    -0.368 OA
BRANCH   7   8
ATOM      8  C   LIG d   1       0.866  84.515 109.366  0.00  0.00     0.119 C 
BRANCH   8   9
ATOM      9  C   LIG d   1       1.442  83.904 108.074  0.00  0.00     0.028 C 
ATOM     10  C   LIG d   1       2.604  82.935 108.350  0.00  0.00     0.006 C 
ENDBRANCH   8   9
BRANCH   8  11
ATOM     11  C   LIG d   1       0.380  85.913 108.973  0.00  0.00     0.028 C 
ATOM     12  C   LIG d   1      -0.890  86.337 109.726  0.00  0.00     0.006 C 
ENDBRANCH   8  11
ENDBRANCH   7   8
ENDBRANCH   1   7
BRANCH   6  13
ATOM     13  N   LIG d   1       2.657  86.185 112.784  0.00  0.00    -0.311 N 
ATOM     14  C   LIG d   1       3.074  87.321 112.227  0.00  0.00     0.210 C 
ATOM     15  C   LIG d   1       4.477  87.771 112.649  0.00  0.00     0.109 C 
ATOM     16  O   LIG d   1       2.404  88.015 111.448  0.00  0.00    -0.276 OA
ATOM     17  H   LIG d   1       3.253  85.705 113.429  0.00  0.00     0.149 HD
ENDBRANCH   6  13
BRANCH   5  18
ATOM     18  N   LIG d   1       0.154  86.530 114.501  0.00  0.00     0.381 N 
ATOM     19  H   LIG d   1      -0.264  87.184 113.870  0.00  0.00    -0.090 HD
ATOM     20  H   LIG d   1       0.989  86.944 114.877  0.00  0.00    -0.090 HD
ATOM     21  H   LIG d   1      -0.481  86.317 115.239  0.00  0.00    -0.090 HD
ENDBRANCH   5  18
BRANCH   3  22
ATOM     22  C   LIG d   1      -1.482  82.413 112.682  0.00  0.00     0.382 C 
ATOM     23  O   LIG d   1      -1.636  81.814 113.774  0.00  0.00    -0.241 OA
ATOM     24  O   LIG d   1      -2.114  82.030 111.678  0.00  0.00    -0.241 OA
ENDBRANCH   3  22
TORSDOF 7
ENDMDL
MODEL 4
REMARK VINA RESULT:      -5.9      2.705      5.562
REMARK  7 active torsions:
REMARK  status: ('A' for Active; 'I' for Inactive)
REMARK    1  A    between atoms: C_2  and  C_3 
REMARK    2  A    between atoms: C_3  and  O_6 
REMARK    3  A    between atoms: C_3  and  C_4 
REMARK    4  A    between atoms: C_7  and  O_6 
REMARK    5  A    between atoms: C_9  and  C_10 
REMARK    6  A    between atoms: N_15  and  C_14 
REMARK    7  A    between atoms: N_20  and  C_19 
REMARK       I    between atoms: C_22  and  N_20 
ROOT
ATOM      1  C   LIG d   1       1.869  82.796 111.835  0.00  0.00     0.161 C 
ATOM      2  C   LIG d   1       0.749  81.957 111.711  0.00  0.00     0.016 C 
ATOM      3  C   LIG d   1      -0.580  82.436 111.661  0.00  0.00     0.038 C 
ATOM      4  C   LIG d   1      -0.872  83.806 111.580  0.00  0.00     0.028 C 
ATOM      5  C   LIG d   1       0.197  84.691 112.211  0.00  0.00    -0.047 C 
ATOM      6  C   LIG d   1       1.577  84.298 111.637  0.00  0.00     0.091 C 
ENDROOT
BRANCH   1   7
ATOM      7  O   LIG d   1       2.906  82.363 110.933  0.00  0.00    -0.368 OA
BRANCH   7   8
ATOM      8  C   LIG d   1       2.461  81.752 109.697  0.00  0.00     0.119 C 
BRANCH   8   9
ATOM      9  C   LIG d   1       3.264  80.450 109.508  0.00  0.00     0.028 C 
ATOM     10  C   LIG d   1       2.378  79.273 109.069  0.00  0.00     0.006 C 
ENDBRANCH   8   9
BRANCH   8  11
ATOM     11  C   LIG d   1       2.812  82.623 108.487  0.00  0.00     0.028 C 
ATOM     12  C   LIG d   1       1.653  83.536 108.054  0.00  0.00     0.006 C 
ENDBRANCH   8  11
ENDBRANCH   7   8
ENDBRANCH   1   7
BRANCH   6  13
ATOM     13  N   LIG d   1       2.690  85.059 112.263  0.00  0.00    -0.311 N 
ATOM     14  C   LIG d   1       3.103  86.247 111.826  0.00  0.00     0.210 C 
ATOM     15  C   LIG d   1       4.278  86.849 112.603  0.00  0.00     0.109 C 
ATOM     16  O   LIG d   1       2.586  86.875 110.890  0.00  0.00    -0.276 OA
ATOM     17  H   LIG d   1       3.145  84.637 113.049  0.00  0.00     0.149 HD
ENDBRANCH   6  13
BRANCH   5  18
ATOM     18  N   LIG d   1      -0.165  86.094 111.935  0.00  0.00     0.381 N 
ATOM     19  H   LIG d   1      -0.042  86.291 110.962  0.00  0.00    -0.090 HD
ATOM     20  H   LIG d   1       0.445  86.697 112.458  0.00  0.00    -0.090 HD
ATOM     21  H   LIG d   1      -1.112  86.260 112.197  0.00  0.00    -0.090 HD
ENDBRANCH   5  18
BRANCH   3  22
ATOM     22  C   LIG d   1      -1.637  81.541 111.732  0.00  0.00     0.382 C 
ATOM     23  O   LIG d   1      -1.486  80.360 111.337  0.00  0.00    -0.241 OA
ATOM     24  O   LIG d   1      -2.752  81.911 112.146  0.00  0.00    -0.241 OA
ENDBRANCH   3  22
TORSDOF 7
ENDMDL
MODEL 5
REMARK VINA RESULT:      -5.5      2.508      5.582
REMARK  7 active torsions:
REMARK  status: ('A' for Active; 'I' for Inactive)
REMARK    1  A    between atoms: C_2  and  C_3 
REMARK    2  A    between atoms: C_3  and  O_6 
REMARK    3  A    between atoms: C_3  and  C_4 
REMARK    4  A    between atoms: C_7  and  O_6 
REMARK    5  A    between atoms: C_9  and  C_10 
REMARK    6  A    between atoms: N_15  and  C_14 
REMARK    7  A    between atoms: N_20  and  C_19 
REMARK       I    between atoms: C_22  and  N_20 
ROOT
ATOM      1  C   LIG d   1       0.958  81.547 111.036  0.00  0.00     0.161 C 
ATOM      2  C   LIG d   1      -0.122  80.674 111.251  0.00  0.00     0.016 C 
ATOM      3  C   LIG d   1      -1.335  81.072 111.860  0.00  0.00     0.038 C 
ATOM      4  C   LIG d   1      -1.608  82.415 112.160  0.00  0.00     0.028 C 
ATOM      5  C   LIG d   1      -0.355  83.244 112.423  0.00  0.00    -0.047 C 
ATOM      6  C   LIG d   1       0.636  83.040 111.255  0.00  0.00     0.091 C 
ENDROOT
BRANCH   1   7
ATOM      7  O   LIG d   1       1.498  81.339 109.716  0.00  0.00    -0.368 OA
BRANCH   7   8
ATOM      8  C   LIG d   1       2.856  80.838 109.654  0.00  0.00     0.119 C 
BRANCH   8   9
ATOM      9  C   LIG d   1       3.554  81.535 108.471  0.00  0.00     0.028 C 
ATOM     10  C   LIG d   1       4.432  82.715 108.921  0.00  0.00     0.006 C 
ENDBRANCH   8   9
BRANCH   8  11
ATOM     11  C   LIG d   1       2.884  79.344 109.318  0.00  0.00     0.028 C 
ATOM     12  C   LIG d   1       1.741  78.923 108.379  0.00  0.00     0.006 C 
ENDBRANCH   8  11
ENDBRANCH   7   8
ENDBRANCH   1   7
BRANCH   6  13
ATOM     13  N   LIG d   1       1.924  83.749 111.474  0.00  0.00    -0.311 N 
ATOM     14  C   LIG d   1       2.187  84.959 110.982  0.00  0.00     0.210 C 
ATOM     15  C   LIG d   1       3.582  85.500 111.310  0.00  0.00     0.109 C 
ATOM     16  O   LIG d   1       1.386  85.648 110.333  0.00  0.00    -0.276 OA
ATOM     17  H   LIG d   1       2.619  83.276 112.016  0.00  0.00     0.149 HD
ENDBRANCH   6  13
BRANCH   5  18
ATOM     18  N   LIG d   1      -0.776  84.648 112.586  0.00  0.00     0.381 N 
ATOM     19  H   LIG d   1      -0.527  84.973 113.499  0.00  0.00    -0.090 HD
ATOM     20  H   LIG d   1      -1.775  84.701 112.494  0.00  0.00    -0.090 HD
ATOM     21  H   LIG d   1      -0.341  85.217 111.893  0.00  0.00    -0.090 HD
ENDBRANCH   5  18
BRANCH   3  22
ATOM     22  C   LIG d   1      -2.274  80.114 112.211  0.00  0.00     0.382 C 
ATOM     23  O   LIG d   1      -2.019  78.897 112.048  0.00  0.00    -0.241 OA
ATOM     24  O   LIG d   1      -3.390  80.454 112.648  0.00  0.00    -0.241 OA
ENDBRANCH   3  22
TORSDOF 7
ENDMDL
MODEL 6
REMARK VINA RESULT:      -5.4      2.641      5.611
REMARK  7 active torsions:
REMARK  status: ('A' for Active; 'I' for Inactive)
REMARK    1  A    between atoms: C_2  and  C_3 
REMARK    2  A    between atoms: C_3  and  O_6 
REMARK    3  A    between atoms: C_3  and  C_4 
REMARK    4  A    between atoms: C_7  and  O_6 
REMARK    5  A    between atoms: C_9  and  C_10 
REMARK    6  A    between atoms: N_15  and  C_14 
REMARK    7  A    between atoms: N_20  and  C_19 
REMARK       I    between atoms: C_22  and  N_20 
ROOT
ATOM      1  C   LIG d   1       0.503  82.419 111.122  0.00  0.00     0.161 C 
ATOM      2  C   LIG d   1       1.357  81.957 110.107  0.00  0.00     0.016 C 
ATOM      3  C   LIG d   1       1.262  80.666 109.537  0.00  0.00     0.038 C 
ATOM      4  C   LIG d   1       0.202  79.799 109.840  0.00  0.00     0.028 C 
ATOM      5  C   LIG d   1      -0.391  80.027 111.226  0.00  0.00    -0.047 C 
ATOM      6  C   LIG d   1      -0.729  81.527 111.386  0.00  0.00     0.091 C 
ENDROOT
BRANCH   1   7
ATOM      7  O   LIG d   1       0.091  83.770 110.836  0.00  0.00    -0.368 OA
BRANCH   7   8
ATOM      8  C   LIG d   1       0.691  84.806 111.652  0.00  0.00     0.119 C 
BRANCH   8   9
ATOM      9  C   LIG d   1      -0.451  85.685 112.198  0.00  0.00     0.028 C 
ATOM     10  C   LIG d   1      -0.655  85.508 113.712  0.00  0.00     0.006 C 
ENDBRANCH   8   9
BRANCH   8  11
ATOM     11  C   LIG d   1       1.559  85.746 110.810  0.00  0.00     0.028 C 
ATOM     12  C   LIG d   1       3.000  85.238 110.645  0.00  0.00     0.006 C 
ENDBRANCH   8  11
ENDBRANCH   7   8
ENDBRANCH   1   7
BRANCH   6  13
ATOM     13  N   LIG d   1      -1.236  81.852 112.745  0.00  0.00    -0.311 N 
ATOM     14  C   LIG d   1      -2.531  81.902 113.052  0.00  0.00     0.210 C 
ATOM     15  C   LIG d   1      -2.838  82.276 114.505  0.00  0.00     0.109 C 
ATOM     16  O   LIG d   1      -3.454  81.642 112.266  0.00  0.00    -0.276 OA
ATOM     17  H   LIG d   1      -0.554  82.047 113.452  0.00  0.00     0.149 HD
ENDBRANCH   6  13
BRANCH   5  18
ATOM     18  N   LIG d   1      -1.572  79.152 111.356  0.00  0.00     0.381 N 
ATOM     19  H   LIG d   1      -2.020  79.317 112.235  0.00  0.00    -0.090 HD
ATOM     20  H   LIG d   1      -1.270  78.194 111.330  0.00  0.00    -0.090 HD
ATOM     21  H   LIG d   1      -2.210  79.327 110.611  0.00  0.00    -0.090 HD
ENDBRANCH   5  18
BRANCH   3  22
ATOM     22  C   LIG d   1       2.257  80.217 108.683  0.00  0.00     0.382 C 
ATOM     23  O   LIG d   1       2.188  79.065 108.190  0.00  0.00    -0.241 OA
ATOM     24  O   LIG d   1       3.246  80.932 108.433  0.00  0.00    -0.241 OA
ENDBRANCH   3  22
TORSDOF 7
ENDMDL
MODEL 7
REMARK VINA RESULT:      -5.3      2.559      4.983
REMARK  7 active torsions:
REMARK  status: ('A' for Active; 'I' for Inactive)
REMARK    1  A    between atoms: C_2  and  C_3 
REMARK    2  A    between atoms: C_3  and  O_6 
REMARK    3  A    between atoms: C_3  and  C_4 
REMARK    4  A    between atoms: C_7  and  O_6 
REMARK    5  A    between atoms: C_9  and  C_10 
REMARK    6  A    between atoms: N_15  and  C_14 
REMARK    7  A    between atoms: N_20  and  C_19 
REMARK       I    between atoms: C_22  and  N_20 
ROOT
ATOM      1  C   LIG d   1       0.293  82.335 111.928  0.00  0.00     0.161 C 
ATOM      2  C   LIG d   1      -1.003  82.126 112.426  0.00  0.00     0.016 C 
ATOM      3  C   LIG d   1      -1.765  80.967 112.151  0.00  0.00     0.038 C 
ATOM      4  C   LIG d   1      -1.220  79.864 111.478  0.00  0.00     0.028 C 
ATOM      5  C   LIG d   1      -0.089  80.235 110.524  0.00  0.00    -0.047 C 
ATOM      6  C   LIG d   1       0.947  81.094 111.284  0.00  0.00     0.091 C 
ENDROOT
BRANCH   1   7
ATOM      7  O   LIG d   1       1.138  82.862 112.971  0.00  0.00    -0.368 OA
BRANCH   7   8
ATOM      8  C   LIG d   1       1.601  84.223 112.789  0.00  0.00     0.119 C 
BRANCH   8   9
ATOM      9  C   LIG d   1       3.053  84.290 113.300  0.00  0.00     0.028 C 
ATOM     10  C   LIG d   1       4.048  84.673 112.191  0.00  0.00     0.006 C 
ENDBRANCH   8   9
BRANCH   8  11
ATOM     11  C   LIG d   1       0.816  85.201 113.668  0.00  0.00     0.028 C 
ATOM     12  C   LIG d   1      -0.376  85.836 112.936  0.00  0.00     0.006 C 
ENDBRANCH   8  11
ENDBRANCH   7   8
ENDBRANCH   1   7
BRANCH   6  13
ATOM     13  N   LIG d   1       2.045  81.570 110.403  0.00  0.00    -0.311 N 
ATOM     14  C   LIG d   1       1.879  82.499 109.463  0.00  0.00     0.210 C 
ATOM     15  C   LIG d   1       3.137  82.830 108.652  0.00  0.00     0.109 C 
ATOM     16  O   LIG d   1       0.819  83.103 109.244  0.00  0.00    -0.276 OA
ATOM     17  H   LIG d   1       2.947  81.156 110.533  0.00  0.00     0.149 HD
ENDBRANCH   6  13
BRANCH   5  18
ATOM     18  N   LIG d   1       0.478  78.979 109.996  0.00  0.00     0.381 N 
ATOM     19  H   LIG d   1       1.326  78.761 110.479  0.00  0.00    -0.090 HD
ATOM     20  H   LIG d   1       0.693  79.104 109.022  0.00  0.00    -0.090 HD
ATOM     21  H   LIG d   1      -0.177  78.237 110.106  0.00  0.00    -0.090 HD
ENDBRANCH   5  18
BRANCH   3  22
ATOM     22  C   LIG d   1      -3.102  80.921 112.516  0.00  0.00     0.382 C 
ATOM     23  O   LIG d   1      -3.681  81.963 112.908  0.00  0.00    -0.241 OA
ATOM     24  O   LIG d   1      -3.724  79.842 112.502  0.00  0.00    -0.241 OA
ENDBRANCH   3  22
TORSDOF 7
ENDMDL
MODEL 8
REMARK VINA RESULT:      -5.3      2.438      4.912
REMARK  7 active torsions:
REMARK  status: ('A' for Active; 'I' for Inactive)
REMARK    1  A    between atoms: C_2  and  C_3 
REMARK    2  A    between atoms: C_3  and  O_6 
REMARK    3  A    between atoms: C_3  and  C_4 
REMARK    4  A    between atoms: C_7  and  O_6 
REMARK    5  A    between atoms: C_9  and  C_10 
REMARK    6  A    between atoms: N_15  and  C_14 
REMARK    7  A    between atoms: N_20  and  C_19 
REMARK       I    between atoms: C_22  and  N_20 
ROOT
ATOM      1  C   LIG d   1       0.518  83.211 110.495  0.00  0.00     0.161 C 
ATOM      2  C   LIG d   1       1.778  83.253 109.875  0.00  0.00     0.016 C 
ATOM      3  C   LIG d   1       2.457  82.101 109.415  0.00  0.00     0.038 C 
ATOM      4  C   LIG d   1       1.850  80.837 109.406  0.00  0.00     0.028 C 
ATOM      5  C   LIG d   1       0.782  80.670 110.482  0.00  0.00    -0.047 C 
ATOM      6  C   LIG d   1      -0.208  81.854 110.393  0.00  0.00     0.091 C 
ENDROOT
BRANCH   1   7
ATOM      7  O   LIG d   1      -0.316  84.266 109.975  0.00  0.00    -0.368 OA
BRANCH   7   8
ATOM      8  C   LIG d   1      -0.733  85.276 110.926  0.00  0.00     0.119 C 
BRANCH   8   9
ATOM      9  C   LIG d   1      -0.333  86.648 110.350  0.00  0.00     0.028 C 
ATOM     10  C   LIG d   1       1.178  86.910 110.455  0.00  0.00     0.006 C 
ENDBRANCH   8   9
BRANCH   8  11
ATOM     11  C   LIG d   1       0.035  85.150 112.245  0.00  0.00     0.028 C 
ATOM     12  C   LIG d   1      -0.860  85.354 113.478  0.00  0.00     0.006 C 
ENDBRANCH   8  11
ENDBRANCH   7   8
ENDBRANCH   1   7
BRANCH   6  13
ATOM     13  N   LIG d   1      -1.237  81.813 111.465  0.00  0.00    -0.311 N 
ATOM     14  C   LIG d   1      -0.966  81.497 112.730  0.00  0.00     0.210 C 
ATOM     15  C   LIG d   1      -2.176  81.496 113.670  0.00  0.00     0.109 C 
ATOM     16  O   LIG d   1       0.167  81.250 113.170  0.00  0.00    -0.276 OA
ATOM     17  H   LIG d   1      -2.178  82.031 111.202  0.00  0.00     0.149 HD
ENDBRANCH   6  13
BRANCH   5  18
ATOM     18  N   LIG d   1       0.138  79.360 110.271  0.00  0.00     0.381 N 
ATOM     19  H   LIG d   1       0.582  78.882 109.512  0.00  0.00    -0.090 HD
ATOM     20  H   LIG d   1      -0.826  79.507 110.029  0.00  0.00    -0.090 HD
ATOM     21  H   LIG d   1       0.200  78.812 111.100  0.00  0.00    -0.090 HD
ENDBRANCH   5  18
BRANCH   3  22
ATOM     22  C   LIG d   1       3.774  82.203 108.993  0.00  0.00     0.382 C 
ATOM     23  O   LIG d   1       4.302  81.262 108.353  0.00  0.00    -0.241 OA
ATOM     24  O   LIG d   1       4.455  83.205 109.282  0.00  0.00    -0.241 OA
ENDBRANCH   3  22
TORSDOF 7
ENDMDL
MODEL 9
REMARK VINA RESULT:      -5.1      2.280      4.830
REMARK  7 active torsions:
REMARK  status: ('A' for Active; 'I' for Inactive)
REMARK    1  A    between atoms: C_2  and  C_3 
REMARK    2  A    between atoms: C_3  and  O_6 
REMARK    3  A    between atoms: C_3  and  C_4 
REMARK    4  A    between atoms: C_7  and  O_6 
REMARK    5  A    between atoms: C_9  and  C_10 
REMARK    6  A    between atoms: N_15  and  C_14 
REMARK    7  A    between atoms: N_20  and  C_19 
REMARK       I    between atoms: C_22  and  N_20 
ROOT
ATOM      1  C   LIG d   1      -0.023  81.381 111.260  0.00  0.00     0.161 C 
ATOM      2  C   LIG d   1       0.324  80.266 110.479  0.00  0.00     0.016 C 
ATOM      3  C   LIG d   1       1.576  80.123 109.839  0.00  0.00     0.038 C 
ATOM      4  C   LIG d   1       2.629  81.022 110.061  0.00  0.00     0.028 C 
ATOM      5  C   LIG d   1       2.160  82.424 110.437  0.00  0.00    -0.047 C 
ATOM      6  C   LIG d   1       1.153  82.320 111.605  0.00  0.00     0.091 C 
ENDROOT
BRANCH   1   7
ATOM      7  O   LIG d   1      -0.688  80.948 112.463  0.00  0.00    -0.368 OA
BRANCH   7   8
ATOM      8  C   LIG d   1      -2.121  80.757 112.366  0.00  0.00     0.119 C 
BRANCH   8   9
ATOM      9  C   LIG d   1      -2.787  81.752 113.336  0.00  0.00     0.028 C 
ATOM     10  C   LIG d   1      -1.799  82.311 114.374  0.00  0.00     0.006 C 
ENDBRANCH   8   9
BRANCH   8  11
ATOM     11  C   LIG d   1      -2.533  79.369 112.863  0.00  0.00     0.028 C 
ATOM     12  C   LIG d   1      -3.126  78.489 111.751  0.00  0.00     0.006 C 
ENDBRANCH   8  11
ENDBRANCH   7   8
ENDBRANCH   1   7
BRANCH   6  13
ATOM     13  N   LIG d   1       0.580  83.639 111.979  0.00  0.00    -0.311 N 
ATOM     14  C   LIG d   1      -0.439  84.205 111.335  0.00  0.00     0.210 C 
ATOM     15  C   LIG d   1      -0.861  85.577 111.871  0.00  0.00     0.109 C 
ATOM     16  O   LIG d   1      -1.055  83.687 110.391  0.00  0.00    -0.276 OA
ATOM     17  H   LIG d   1       1.000  84.115 112.753  0.00  0.00     0.149 HD
ENDBRANCH   6  13
BRANCH   5  18
ATOM     18  N   LIG d   1       3.356  83.219 110.774  0.00  0.00     0.381 N 
ATOM     19  H   LIG d   1       4.154  82.619 110.840  0.00  0.00    -0.090 HD
ATOM     20  H   LIG d   1       3.215  83.655 111.668  0.00  0.00    -0.090 HD
ATOM     21  H   LIG d   1       3.511  83.914 110.077  0.00  0.00    -0.090 HD
ENDBRANCH   5  18
BRANCH   3  22
ATOM     22  C   LIG d   1       1.771  79.091 108.933  0.00  0.00     0.382 C 
ATOM     23  O   LIG d   1       1.141  79.082 107.848  0.00  0.00    -0.241 OA
ATOM     24  O   LIG d   1       2.535  78.146 109.207  0.00  0.00    -0.241 OA
ENDBRANCH   3  22
TORSDOF 7
ENDMDL
