MODEL 1
REMARK VINA RESULT:      -6.9      0.000      0.000
REMARK  7 active torsions:
REMARK  status: ('A' for Active; 'I' for Inactive)
REMARK    1  A    between atoms: C_2  and  C_3 
REMARK    2  A    between atoms: C_3  and  O_6 
REMARK    3  A    between atoms: C_3  and  C_4 
REMARK    4  A    between atoms: C_7  and  O_6 
REMARK    5  A    between atoms: C_9  and  C_10 
REMARK    6  A    between atoms: N_15  and  C_14 
REMARK    7  A    between atoms: N_20  and  C_19 
REMARK       I    between atoms: C_22  and  N_20 
ROOT
ATOM      1  C   LIG d   1       0.740  84.056 109.565  0.00  0.00     0.161 C 
ATOM      2  C   LIG d   1       0.421  85.346 110.021  0.00  0.00     0.016 C 
ATOM      3  C   LIG d   1      -0.410  85.592 111.138  0.00  0.00     0.038 C 
ATOM      4  C   LIG d   1      -0.858  84.557 111.972  0.00  0.00     0.028 C 
ATOM      5  C   LIG d   1      -0.978  83.214 111.259  0.00  0.00    -0.047 C 
ATOM      6  C   LIG d   1       0.350  82.914 110.527  0.00  0.00     0.091 C 
ENDROOT
BRANCH   1   7
ATOM      7  O   LIG d   1       2.144  83.984 109.245  0.00  0.00    -0.368 OA
BRANCH   7   8
ATOM      8  C   LIG d   1       3.032  83.659 110.342  0.00  0.00     0.119 C 
BRANCH   8   9
ATOM      9  C   LIG d   1       3.628  84.981 110.862  0.00  0.00     0.028 C 
ATOM     10  C   LIG d   1       3.354  85.200 112.359  0.00  0.00     0.006 C 
ENDBRANCH   8   9
BRANCH   8  11
ATOM     11  C   LIG d   1       4.230  82.834 109.864  0.00  0.00     0.028 C 
ATOM     12  C   LIG d   1       3.984  82.158 108.505  0.00  0.00     0.006 C 
ENDBRANCH   8  11
ENDBRANCH   7   8
ENDBRANCH   1   7
BRANCH   6  13
ATOM     13  N   LIG d   1       0.290  81.659 109.735  0.00  0.00    -0.311 N 
ATOM     14  C   LIG d   1       1.019  80.580 110.014  0.00  0.00     0.210 C 
ATOM     15  C   LIG d   1       0.819  79.399 109.059  0.00  0.00     0.109 C 
ATOM     16  O   LIG d   1       1.788  80.477 110.981  0.00  0.00    -0.276 OA
ATOM     17  H   LIG d   1      -0.332  81.644 108.950  0.00  0.00     0.149 HD
ENDBRANCH   6  13
BRANCH   5  18
ATOM     18  N   LIG d   1      -1.321  82.200 112.273  0.00  0.00     0.381 N 
ATOM     19  H   LIG d   1      -1.644  82.650 113.107  0.00  0.00    -0.090 HD
ATOM     20  H   LIG d   1      -0.496  81.673 112.498  0.00  0.00    -0.090 HD
ATOM     21  H   LIG d   1      -2.027  81.591 111.922  0.00  0.00    -0.090 HD
ENDBRANCH   5  18
BRANCH   3  22
ATOM     22  C   LIG d   1      -0.832  86.885 111.408  0.00  0.00     0.382 C 
ATOM     23  O   LIG d   1      -2.042  87.190 111.276  0.00  0.00    -0.241 OA
ATOM     24  O   LIG d   1      -0.012  87.762 111.739  0.00  0.00    -0.241 OA
ENDBRANCH   3  22
TORSDOF 7
ENDMDL
MODEL 2
REMARK VINA RESULT:      -6.4      2.606      4.321
REMARK  7 active torsions:
REMARK  status: ('A' for Active; 'I' for Inactive)
REMARK    1  A    between atoms: C_2  and  C_3 
REMARK    2  A    between atoms: C_3  and  O_6 
REMARK    3  A    between atoms: C_3  and  C_4 
REMARK    4  A    between atoms: C_7  and  O_6 
REMARK    5  A    between atoms: C_9  and  C_10 
REMARK    6  A    between atoms: N_15  and  C_14 
REMARK    7  A    between atoms: N_20  and  C_19 
REMARK       I    between atoms: C_22  and  N_20 
ROOT
ATOM      1  C   LIG d   1       0.060  82.560 111.401  0.00  0.00     0.161 C 
ATOM      2  C   LIG d   1      -1.062  82.306 112.207  0.00  0.00     0.016 C 
ATOM      3  C   LIG d   1      -1.617  81.018 112.384  0.00  0.00     0.038 C 
ATOM      4  C   LIG d   1      -0.992  79.866 111.884  0.00  0.00     0.028 C 
ATOM      5  C   LIG d   1      -0.142  80.128 110.645  0.00  0.00    -0.047 C 
ATOM      6  C   LIG d   1       0.821  81.301 110.936  0.00  0.00     0.091 C 
ENDROOT
BRANCH   1   7
ATOM      7  O   LIG d   1       0.954  83.465 112.079  0.00  0.00    -0.368 OA
BRANCH   7   8
ATOM      8  C   LIG d   1       0.988  84.823 111.577  0.00  0.00     0.119 C 
BRANCH   8   9
ATOM      9  C   LIG d   1       0.324  85.725 112.636  0.00  0.00     0.028 C 
ATOM     10  C   LIG d   1      -1.136  86.060 112.289  0.00  0.00     0.006 C 
ENDBRANCH   8   9
BRANCH   8  11
ATOM     11  C   LIG d   1       0.128  84.974 110.319  0.00  0.00     0.028 C 
ATOM     12  C   LIG d   1       0.962  85.238 109.055  0.00  0.00     0.006 C 
ENDBRANCH   8  11
ENDBRANCH   7   8
ENDBRANCH   1   7
BRANCH   6  13
ATOM     13  N   LIG d   1       1.631  81.678 109.748  0.00  0.00    -0.311 N 
ATOM     14  C   LIG d   1       2.955  81.815 109.778  0.00  0.00     0.210 C 
ATOM     15  C   LIG d   1       3.592  82.228 108.447  0.00  0.00     0.109 C 
ATOM     16  O   LIG d   1       3.667  81.602 110.771  0.00  0.00    -0.276 OA
ATOM     17  H   LIG d   1       1.137  81.839 108.892  0.00  0.00     0.149 HD
ENDBRANCH   6  13
BRANCH   5  18
ATOM     18  N   LIG d   1       0.559  78.873 110.312  0.00  0.00     0.381 N 
ATOM     19  H   LIG d   1       1.472  78.876 110.721  0.00  0.00    -0.090 HD
ATOM     20  H   LIG d   1       0.660  78.812 109.314  0.00  0.00    -0.090 HD
ATOM     21  H   LIG d   1       0.039  78.093 110.649  0.00  0.00    -0.090 HD
ENDBRANCH   5  18
BRANCH   3  22
ATOM     22  C   LIG d   1      -2.833  80.877 113.036  0.00  0.00     0.382 C 
ATOM     23  O   LIG d   1      -3.793  81.629 112.741  0.00  0.00    -0.241 OA
ATOM     24  O   LIG d   1      -2.969  80.038 113.946  0.00  0.00    -0.241 OA
ENDBRANCH   3  22
TORSDOF 7
ENDMDL
MODEL 3
REMARK VINA RESULT:      -6.3      2.660      4.859
REMARK  7 active torsions:
REMARK  status: ('A' for Active; 'I' for Inactive)
REMARK    1  A    between atoms: C_2  and  C_3 
REMARK    2  A    between atoms: C_3  and  O_6 
REMARK    3  A    between atoms: C_3  and  C_4 
REMARK    4  A    between atoms: C_7  and  O_6 
REMARK    5  A    between atoms: C_9  and  C_10 
REMARK    6  A    between atoms: N_15  and  C_14 
REMARK    7  A    between atoms: N_20  and  C_19 
REMARK       I    between atoms: C_22  and  N_20 
ROOT
ATOM      1  C   LIG d   1       1.864  83.717 112.424  0.00  0.00     0.161 C 
ATOM      2  C   LIG d   1       0.891  82.722 112.228  0.00  0.00     0.016 C 
ATOM      3  C   LIG d   1      -0.485  83.001 112.063  0.00  0.00     0.038 C 
ATOM      4  C   LIG d   1      -0.965  84.312 111.930  0.00  0.00     0.028 C 
ATOM      5  C   LIG d   1      -0.091  85.351 112.625  0.00  0.00    -0.047 C 
ATOM      6  C   LIG d   1       1.374  85.159 112.171  0.00  0.00     0.091 C 
ENDROOT
BRANCH   1   7
ATOM      7  O   LIG d   1       3.023  83.433 111.616  0.00  0.00    -0.368 OA
BRANCH   7   8
ATOM      8  C   LIG d   1       2.795  82.624 110.436  0.00  0.00     0.119 C 
BRANCH   8   9
ATOM      9  C   LIG d   1       3.981  81.649 110.307  0.00  0.00     0.028 C 
ATOM     10  C   LIG d   1       3.658  80.448 109.402  0.00  0.00     0.006 C 
ENDBRANCH   8   9
BRANCH   8  11
ATOM     11  C   LIG d   1       2.828  83.474 109.162  0.00  0.00     0.028 C 
ATOM     12  C   LIG d   1       1.444  83.630 108.514  0.00  0.00     0.006 C 
ENDBRANCH   8  11
ENDBRANCH   7   8
ENDBRANCH   1   7
BRANCH   6  13
ATOM     13  N   LIG d   1       2.309  86.080 112.867  0.00  0.00    -0.311 N 
ATOM     14  C   LIG d   1       2.590  87.307 112.432  0.00  0.00     0.210 C 
ATOM     15  C   LIG d   1       3.595  88.083 113.288  0.00  0.00     0.109 C 
ATOM     16  O   LIG d   1       2.077  87.838 111.435  0.00  0.00    -0.276 OA
ATOM     17  H   LIG d   1       2.746  85.741 113.702  0.00  0.00     0.149 HD
ENDBRANCH   6  13
BRANCH   5  18
ATOM     18  N   LIG d   1      -0.630  86.683 112.291  0.00  0.00     0.381 N 
ATOM     19  H   LIG d   1      -0.206  87.018 111.448  0.00  0.00    -0.090 HD
ATOM     20  H   LIG d   1      -0.404  87.321 113.033  0.00  0.00    -0.090 HD
ATOM     21  H   LIG d   1      -1.618  86.632 112.176  0.00  0.00    -0.090 HD
ENDBRANCH   5  18
BRANCH   3  22
ATOM     22  C   LIG d   1      -1.402  81.961 112.069  0.00  0.00     0.382 C 
ATOM     23  O   LIG d   1      -2.529  82.122 112.597  0.00  0.00    -0.241 OA
ATOM     24  O   LIG d   1      -1.101  80.850 111.592  0.00  0.00    -0.241 OA
ENDBRANCH   3  22
TORSDOF 7
ENDMDL
MODEL 4
REMARK VINA RESULT:      -6.1      2.409      4.796
REMARK  7 active torsions:
REMARK  status: ('A' for Active; 'I' for Inactive)
REMARK    1  A    between atoms: C_2  and  C_3 
REMARK    2  A    between atoms: C_3  and  O_6 
REMARK    3  A    between atoms: C_3  and  C_4 
REMARK    4  A    between atoms: C_7  and  O_6 
REMARK    5  A    between atoms: C_9  and  C_10 
REMARK    6  A    between atoms: N_15  and  C_14 
REMARK    7  A    between atoms: N_20  and  C_19 
REMARK       I    between atoms: C_22  and  N_20 
ROOT
ATOM      1  C   LIG d   1       1.199  82.008 112.037  0.00  0.00     0.161 C 
ATOM      2  C   LIG d   1       2.184  82.477 111.152  0.00  0.00     0.016 C 
ATOM      3  C   LIG d   1       2.272  82.071 109.800  0.00  0.00     0.038 C 
ATOM      4  C   LIG d   1       1.283  81.280 109.197  0.00  0.00     0.028 C 
ATOM      5  C   LIG d   1       0.547  80.377 110.181  0.00  0.00    -0.047 C 
ATOM      6  C   LIG d   1       0.046  81.231 111.368  0.00  0.00     0.091 C 
ENDROOT
BRANCH   1   7
ATOM      7  O   LIG d   1       0.679  83.104 112.814  0.00  0.00    -0.368 OA
BRANCH   7   8
ATOM      8  C   LIG d   1       0.528  84.365 112.117  0.00  0.00     0.119 C 
BRANCH   8   9
ATOM      9  C   LIG d   1       1.100  85.469 113.027  0.00  0.00     0.028 C 
ATOM     10  C   LIG d   1       1.916  84.899 114.199  0.00  0.00     0.006 C 
ENDBRANCH   8   9
BRANCH   8  11
ATOM     11  C   LIG d   1      -0.949  84.723 111.925  0.00  0.00     0.028 C 
ATOM     12  C   LIG d   1      -1.162  85.845 110.897  0.00  0.00     0.006 C 
ENDBRANCH   8  11
ENDBRANCH   7   8
ENDBRANCH   1   7
BRANCH   6  13
ATOM     13  N   LIG d   1      -0.612  80.410 112.418  0.00  0.00    -0.311 N 
ATOM     14  C   LIG d   1      -1.837  80.657 112.881  0.00  0.00     0.210 C 
ATOM     15  C   LIG d   1      -2.318  79.701 113.977  0.00  0.00     0.109 C 
ATOM     16  O   LIG d   1      -2.582  81.557 112.465  0.00  0.00    -0.276 OA
ATOM     17  H   LIG d   1      -0.091  79.640 112.789  0.00  0.00     0.149 HD
ENDBRANCH   6  13
BRANCH   5  18
ATOM     18  N   LIG d   1      -0.544  79.712 109.444  0.00  0.00     0.381 N 
ATOM     19  H   LIG d   1      -0.656  80.138 108.546  0.00  0.00    -0.090 HD
ATOM     20  H   LIG d   1      -1.401  79.829 109.957  0.00  0.00    -0.090 HD
ATOM     21  H   LIG d   1      -0.343  78.742 109.337  0.00  0.00    -0.090 HD
ENDBRANCH   5  18
BRANCH   3  22
ATOM     22  C   LIG d   1       3.381  82.427 109.048  0.00  0.00     0.382 C 
ATOM     23  O   LIG d   1       3.496  82.016 107.868  0.00  0.00    -0.241 OA
ATOM     24  O   LIG d   1       4.290  83.116 109.548  0.00  0.00    -0.241 OA
ENDBRANCH   3  22
TORSDOF 7
ENDMDL
MODEL 5
REMARK VINA RESULT:      -6.0      3.101      4.891
REMARK  7 active torsions:
REMARK  status: ('A' for Active; 'I' for Inactive)
REMARK    1  A    between atoms: C_2  and  C_3 
REMARK    2  A    between atoms: C_3  and  O_6 
REMARK    3  A    between atoms: C_3  and  C_4 
REMARK    4  A    between atoms: C_7  and  O_6 
REMARK    5  A    between atoms: C_9  and  C_10 
REMARK    6  A    between atoms: N_15  and  C_14 
REMARK    7  A    between atoms: N_20  and  C_19 
REMARK       I    between atoms: C_22  and  N_20 
ROOT
ATOM      1  C   LIG d   1       1.634  84.794 112.986  0.00  0.00     0.161 C 
ATOM      2  C   LIG d   1       0.487  84.908 112.182  0.00  0.00     0.016 C 
ATOM      3  C   LIG d   1      -0.050  86.147 111.766  0.00  0.00     0.038 C 
ATOM      4  C   LIG d   1       0.614  87.360 112.001  0.00  0.00     0.028 C 
ATOM      5  C   LIG d   1       1.506  87.333 113.238  0.00  0.00    -0.047 C 
ATOM      6  C   LIG d   1       2.436  86.101 113.159  0.00  0.00     0.091 C 
ENDROOT
BRANCH   1   7
ATOM      7  O   LIG d   1       2.486  83.748 112.476  0.00  0.00    -0.368 OA
BRANCH   7   8
ATOM      8  C   LIG d   1       2.374  83.470 111.058  0.00  0.00     0.119 C 
BRANCH   8   9
ATOM      9  C   LIG d   1       2.334  81.939 110.889  0.00  0.00     0.028 C 
ATOM     10  C   LIG d   1       1.161  81.295 111.647  0.00  0.00     0.006 C 
ENDBRANCH   8   9
BRANCH   8  11
ATOM     11  C   LIG d   1       3.623  83.929 110.300  0.00  0.00     0.028 C 
ATOM     12  C   LIG d   1       4.388  82.765 109.651  0.00  0.00     0.006 C 
ENDBRANCH   8  11
ENDBRANCH   7   8
ENDBRANCH   1   7
BRANCH   6  13
ATOM     13  N   LIG d   1       3.283  85.952 114.370  0.00  0.00    -0.311 N 
ATOM     14  C   LIG d   1       4.512  86.454 114.472  0.00  0.00     0.210 C 
ATOM     15  C   LIG d   1       5.220  86.169 115.800  0.00  0.00     0.109 C 
ATOM     16  O   LIG d   1       5.071  87.137 113.600  0.00  0.00    -0.276 OA
ATOM     17  H   LIG d   1       2.896  85.438 115.138  0.00  0.00     0.149 HD
ENDBRANCH   6  13
BRANCH   5  18
ATOM     18  N   LIG d   1       2.242  88.611 113.285  0.00  0.00     0.381 N 
ATOM     19  H   LIG d   1       1.629  89.343 113.584  0.00  0.00    -0.090 HD
ATOM     20  H   LIG d   1       2.569  88.831 112.361  0.00  0.00    -0.090 HD
ATOM     21  H   LIG d   1       3.013  88.537 113.910  0.00  0.00    -0.090 HD
ENDBRANCH   5  18
BRANCH   3  22
ATOM     22  C   LIG d   1      -1.287  86.184 111.140  0.00  0.00     0.382 C 
ATOM     23  O   LIG d   1      -2.038  87.178 111.294  0.00  0.00    -0.241 OA
ATOM     24  O   LIG d   1      -1.680  85.218 110.460  0.00  0.00    -0.241 OA
ENDBRANCH   3  22
TORSDOF 7
ENDMDL
MODEL 6
REMARK VINA RESULT:      -5.8      2.288      5.531
REMARK  7 active torsions:
REMARK  status: ('A' for Active; 'I' for Inactive)
REMARK    1  A    between atoms: C_2  and  C_3 
REMARK    2  A    between atoms: C_3  and  O_6 
REMARK    3  A    between atoms: C_3  and  C_4 
REMARK    4  A    between atoms: C_7  and  O_6 
REMARK    5  A    between atoms: C_9  and  C_10 
REMARK    6  A    between atoms: N_15  and  C_14 
REMARK    7  A    between atoms: N_20  and  C_19 
REMARK       I    between atoms: C_22  and  N_20 
ROOT
ATOM      1  C   LIG d   1       0.763  81.053 110.444  0.00  0.00     0.161 C 
ATOM      2  C   LIG d   1       0.589  79.724 110.024  0.00  0.00     0.016 C 
ATOM      3  C   LIG d   1      -0.389  78.858 110.566  0.00  0.00     0.038 C 
ATOM      4  C   LIG d   1      -1.365  79.313 111.465  0.00  0.00     0.028 C 
ATOM      5  C   LIG d   1      -0.913  80.510 112.294  0.00  0.00    -0.047 C 
ATOM      6  C   LIG d   1      -0.364  81.599 111.345  0.00  0.00     0.091 C 
ENDROOT
BRANCH   1   7
ATOM      7  O   LIG d   1       0.948  81.907 109.298  0.00  0.00    -0.368 OA
BRANCH   7   8
ATOM      8  C   LIG d   1       2.279  82.450 109.116  0.00  0.00     0.119 C 
BRANCH   8   9
ATOM      9  C   LIG d   1       3.207  81.752 110.129  0.00  0.00     0.028 C 
ATOM     10  C   LIG d   1       4.199  80.792 109.451  0.00  0.00     0.006 C 
ENDBRANCH   8   9
BRANCH   8  11
ATOM     11  C   LIG d   1       2.329  83.937 109.479  0.00  0.00     0.028 C 
ATOM     12  C   LIG d   1       3.490  84.281 110.424  0.00  0.00     0.006 C 
ENDBRANCH   8  11
ENDBRANCH   7   8
ENDBRANCH   1   7
BRANCH   6  13
ATOM     13  N   LIG d   1       0.177  82.772 112.080  0.00  0.00    -0.311 N 
ATOM     14  C   LIG d   1      -0.276  84.014 111.915  0.00  0.00     0.210 C 
ATOM     15  C   LIG d   1       0.435  85.078 112.757  0.00  0.00     0.109 C 
ATOM     16  O   LIG d   1      -1.220  84.330 111.176  0.00  0.00    -0.276 OA
ATOM     17  H   LIG d   1       0.925  82.601 112.724  0.00  0.00     0.149 HD
ENDBRANCH   6  13
BRANCH   5  18
ATOM     18  N   LIG d   1      -2.071  80.965 113.087  0.00  0.00     0.381 N 
ATOM     19  H   LIG d   1      -2.542  80.176 113.482  0.00  0.00    -0.090 HD
ATOM     20  H   LIG d   1      -2.713  81.445 112.480  0.00  0.00    -0.090 HD
ATOM     21  H   LIG d   1      -1.768  81.577 113.813  0.00  0.00    -0.090 HD
ENDBRANCH   5  18
BRANCH   3  22
ATOM     22  C   LIG d   1      -0.372  77.511 110.238  0.00  0.00     0.382 C 
ATOM     23  O   LIG d   1       0.618  77.023 109.641  0.00  0.00    -0.241 OA
ATOM     24  O   LIG d   1      -1.353  76.786 110.492  0.00  0.00    -0.241 OA
ENDBRANCH   3  22
TORSDOF 7
ENDMDL
MODEL 7
REMARK VINA RESULT:      -5.8      1.321      2.329
REMARK  7 active torsions:
REMARK  status: ('A' for Active; 'I' for Inactive)
REMARK    1  A    between atoms: C_2  and  C_3 
REMARK    2  A    between atoms: C_3  and  O_6 
REMARK    3  A    between atoms: C_3  and  C_4 
REMARK    4  A    between atoms: C_7  and  O_6 
REMARK    5  A    between atoms: C_9  and  C_10 
REMARK    6  A    between atoms: N_15  and  C_14 
REMARK    7  A    between atoms: N_20  and  C_19 
REMARK       I    between atoms: C_22  and  N_20 
ROOT
ATOM      1  C   LIG d   1       1.150  82.564 110.452  0.00  0.00     0.161 C 
ATOM      2  C   LIG d   1       0.799  83.922 110.374  0.00  0.00     0.016 C 
ATOM      3  C   LIG d   1      -0.348  84.465 110.998  0.00  0.00     0.038 C 
ATOM      4  C   LIG d   1      -1.145  83.711 111.872  0.00  0.00     0.028 C 
ATOM      5  C   LIG d   1      -1.116  82.215 111.579  0.00  0.00    -0.047 C 
ATOM      6  C   LIG d   1       0.355  81.748 111.493  0.00  0.00     0.091 C 
ENDROOT
BRANCH   1   7
ATOM      7  O   LIG d   1       2.566  82.439 110.693  0.00  0.00    -0.368 OA
BRANCH   7   8
ATOM      8  C   LIG d   1       3.393  83.528 110.214  0.00  0.00     0.119 C 
BRANCH   8   9
ATOM      9  C   LIG d   1       4.528  82.913 109.373  0.00  0.00     0.028 C 
ATOM     10  C   LIG d   1       4.001  81.991 108.261  0.00  0.00     0.006 C 
ENDBRANCH   8   9
BRANCH   8  11
ATOM     11  C   LIG d   1       4.090  84.249 111.371  0.00  0.00     0.028 C 
ATOM     12  C   LIG d   1       3.660  85.719 111.503  0.00  0.00     0.006 C 
ENDBRANCH   8  11
ENDBRANCH   7   8
ENDBRANCH   1   7
BRANCH   6  13
ATOM     13  N   LIG d   1       0.474  80.313 111.126  0.00  0.00    -0.311 N 
ATOM     14  C   LIG d   1       0.088  79.823 109.950  0.00  0.00     0.210 C 
ATOM     15  C   LIG d   1       0.280  78.312 109.784  0.00  0.00     0.109 C 
ATOM     16  O   LIG d   1      -0.367  80.500 109.016  0.00  0.00    -0.276 OA
ATOM     17  H   LIG d   1       0.862  79.697 111.814  0.00  0.00     0.149 HD
ENDBRANCH   6  13
BRANCH   5  18
ATOM     18  N   LIG d   1      -1.876  81.537 112.647  0.00  0.00     0.381 N 
ATOM     19  H   LIG d   1      -1.509  81.798 113.541  0.00  0.00    -0.090 HD
ATOM     20  H   LIG d   1      -1.770  80.543 112.541  0.00  0.00    -0.090 HD
ATOM     21  H   LIG d   1      -2.839  81.784 112.590  0.00  0.00    -0.090 HD
ENDBRANCH   5  18
BRANCH   3  22
ATOM     22  C   LIG d   1      -0.731  85.768 110.716  0.00  0.00     0.382 C 
ATOM     23  O   LIG d   1       0.118  86.691 110.746  0.00  0.00    -0.241 OA
ATOM     24  O   LIG d   1      -1.923  86.038 110.476  0.00  0.00    -0.241 OA
ENDBRANCH   3  22
TORSDOF 7
ENDMDL
MODEL 8
REMARK VINA RESULT:      -5.6      3.245      5.421
REMARK  7 active torsions:
REMARK  status: ('A' for Active; 'I' for Inactive)
REMARK    1  A    between atoms: C_2  and  C_3 
REMARK    2  A    between atoms: C_3  and  O_6 
REMARK    3  A    between atoms: C_3  and  C_4 
REMARK    4  A    between atoms: C_7  and  O_6 
REMARK    5  A    between atoms: C_9  and  C_10 
REMARK    6  A    between atoms: N_15  and  C_14 
REMARK    7  A    between atoms: N_20  and  C_19 
REMARK       I    between atoms: C_22  and  N_20 
ROOT
ATOM      1  C   LIG d   1       2.953  85.768 112.366  0.00  0.00     0.161 C 
ATOM      2  C   LIG d   1       4.213  86.312 112.664  0.00  0.00     0.016 C 
ATOM      3  C   LIG d   1       4.461  87.129 113.792  0.00  0.00     0.038 C 
ATOM      4  C   LIG d   1       3.493  87.334 114.786  0.00  0.00     0.028 C 
ATOM      5  C   LIG d   1       2.062  87.219 114.272  0.00  0.00    -0.047 C 
ATOM      6  C   LIG d   1       1.912  85.889 113.499  0.00  0.00     0.091 C 
ENDROOT
BRANCH   1   7
ATOM      7  O   LIG d   1       3.098  84.391 111.964  0.00  0.00    -0.368 OA
BRANCH   7   8
ATOM      8  C   LIG d   1       3.203  84.151 110.539  0.00  0.00     0.119 C 
BRANCH   8   9
ATOM      9  C   LIG d   1       1.826  83.664 110.049  0.00  0.00     0.028 C 
ATOM     10  C   LIG d   1       1.084  84.731 109.226  0.00  0.00     0.006 C 
ENDBRANCH   8   9
BRANCH   8  11
ATOM     11  C   LIG d   1       4.171  83.003 110.238  0.00  0.00     0.028 C 
ATOM     12  C   LIG d   1       3.922  82.360 108.864  0.00  0.00     0.006 C 
ENDBRANCH   8  11
ENDBRANCH   7   8
ENDBRANCH   1   7
BRANCH   6  13
ATOM     13  N   LIG d   1       0.565  85.736 112.890  0.00  0.00    -0.311 N 
ATOM     14  C   LIG d   1      -0.009  86.672 112.136  0.00  0.00     0.210 C 
ATOM     15  C   LIG d   1      -1.409  86.321 111.623  0.00  0.00     0.109 C 
ATOM     16  O   LIG d   1       0.522  87.746 111.816  0.00  0.00    -0.276 OA
ATOM     17  H   LIG d   1       0.075  84.882 113.073  0.00  0.00     0.149 HD
ENDBRANCH   6  13
BRANCH   5  18
ATOM     18  N   LIG d   1       1.161  87.317 115.435  0.00  0.00     0.381 N 
ATOM     19  H   LIG d   1       1.012  86.408 115.826  0.00  0.00    -0.090 HD
ATOM     20  H   LIG d   1       0.275  87.679 115.131  0.00  0.00    -0.090 HD
ATOM     21  H   LIG d   1       1.556  87.921 116.123  0.00  0.00    -0.090 HD
ENDBRANCH   5  18
BRANCH   3  22
ATOM     22  C   LIG d   1       5.678  87.783 113.912  0.00  0.00     0.382 C 
ATOM     23  O   LIG d   1       6.094  88.509 112.977  0.00  0.00    -0.241 OA
ATOM     24  O   LIG d   1       6.384  87.622 114.924  0.00  0.00    -0.241 OA
ENDBRANCH   3  22
TORSDOF 7
ENDMDL
MODEL 9
REMARK VINA RESULT:      -5.4      1.788      3.020
REMARK  7 active torsions:
REMARK  status: ('A' for Active; 'I' for Inactive)
REMARK    1  A    between atoms: C_2  and  C_3 
REMARK    2  A    between atoms: C_3  and  O_6 
REMARK    3  A    between atoms: C_3  and  C_4 
REMARK    4  A    between atoms: C_7  and  O_6 
REMARK    5  A    between atoms: C_9  and  C_10 
REMARK    6  A    between atoms: N_15  and  C_14 
REMARK    7  A    between atoms: N_20  and  C_19 
REMARK       I    between atoms: C_22  and  N_20 
ROOT
ATOM      1  C   LIG d   1       0.994  82.227 110.312  0.00  0.00     0.161 C 
ATOM      2  C   LIG d   1       1.312  83.593 110.385  0.00  0.00     0.016 C 
ATOM      3  C   LIG d   1       0.580  84.522 111.161  0.00  0.00     0.038 C 
ATOM      4  C   LIG d   1      -0.434  84.117 112.041  0.00  0.00     0.028 C 
ATOM      5  C   LIG d   1      -1.119  82.821 111.620  0.00  0.00    -0.047 C 
ATOM      6  C   LIG d   1      -0.040  81.747 111.352  0.00  0.00     0.091 C 
ENDROOT
BRANCH   1   7
ATOM      7  O   LIG d   1       2.198  81.440 110.404  0.00  0.00    -0.368 OA
BRANCH   7   8
ATOM      8  C   LIG d   1       2.687  80.876 109.161  0.00  0.00     0.119 C 
BRANCH   8   9
ATOM      9  C   LIG d   1       2.545  79.345 109.260  0.00  0.00     0.028 C 
ATOM     10  C   LIG d   1       1.190  78.845 108.732  0.00  0.00     0.006 C 
ENDBRANCH   8   9
BRANCH   8  11
ATOM     11  C   LIG d   1       4.186  81.135 108.984  0.00  0.00     0.028 C 
ATOM     12  C   LIG d   1       4.637  82.470 109.596  0.00  0.00     0.006 C 
ENDBRANCH   8  11
ENDBRANCH   7   8
ENDBRANCH   1   7
BRANCH   6  13
ATOM     13  N   LIG d   1      -0.621  80.473 110.854  0.00  0.00    -0.311 N 
ATOM     14  C   LIG d   1      -1.154  79.549 111.652  0.00  0.00     0.210 C 
ATOM     15  C   LIG d   1      -1.677  78.300 110.935  0.00  0.00     0.109 C 
ATOM     16  O   LIG d   1      -1.272  79.659 112.881  0.00  0.00    -0.276 OA
ATOM     17  H   LIG d   1      -0.595  80.315 109.866  0.00  0.00     0.149 HD
ENDBRANCH   6  13
BRANCH   5  18
ATOM     18  N   LIG d   1      -2.057  82.443 112.694  0.00  0.00     0.381 N 
ATOM     19  H   LIG d   1      -2.998  82.611 112.398  0.00  0.00    -0.090 HD
ATOM     20  H   LIG d   1      -1.874  83.014 113.501  0.00  0.00    -0.090 HD
ATOM     21  H   LIG d   1      -1.941  81.481 112.926  0.00  0.00    -0.090 HD
ENDBRANCH   5  18
BRANCH   3  22
ATOM     22  C   LIG d   1       0.835  85.879 111.030  0.00  0.00     0.382 C 
ATOM     23  O   LIG d   1       0.039  86.716 111.518  0.00  0.00    -0.241 OA
ATOM     24  O   LIG d   1       1.828  86.276 110.391  0.00  0.00    -0.241 OA
ENDBRANCH   3  22
TORSDOF 7
ENDMDL
