MODEL 1
REMARK VINA RESULT:      -5.9      0.000      0.000
REMARK  7 active torsions:
REMARK  status: ('A' for Active; 'I' for Inactive)
REMARK    1  A    between atoms: C_2  and  C_3 
REMARK    2  A    between atoms: C_3  and  O_6 
REMARK    3  A    between atoms: C_3  and  C_4 
REMARK    4  A    between atoms: C_7  and  O_6 
REMARK    5  A    between atoms: C_9  and  C_10 
REMARK    6  A    between atoms: N_15  and  C_14 
REMARK    7  A    between atoms: N_20  and  C_19 
REMARK       I    between atoms: C_22  and  N_20 
ROOT
ATOM      1  C   LIG d   1      -7.511  75.897 117.328  0.00  0.00     0.161 C 
ATOM      2  C   LIG d   1      -8.789  76.310 117.740  0.00  0.00     0.016 C 
ATOM      3  C   LIG d   1      -9.112  77.652 118.045  0.00  0.00     0.038 C 
ATOM      4  C   LIG d   1      -8.213  78.703 117.810  0.00  0.00     0.028 C 
ATOM      5  C   LIG d   1      -6.751  78.275 117.874  0.00  0.00    -0.047 C 
ATOM      6  C   LIG d   1      -6.548  77.045 116.960  0.00  0.00     0.091 C 
ENDROOT
BRANCH   1   7
ATOM      7  O   LIG d   1      -7.627  74.969 116.231  0.00  0.00    -0.368 OA
BRANCH   7   8
ATOM      8  C   LIG d   1      -7.469  73.568 116.562  0.00  0.00     0.119 C 
BRANCH   8   9
ATOM      9  C   LIG d   1      -6.761  72.889 115.374  0.00  0.00     0.028 C 
ATOM     10  C   LIG d   1      -5.629  73.753 114.793  0.00  0.00     0.006 C 
ENDBRANCH   8   9
BRANCH   8  11
ATOM     11  C   LIG d   1      -8.825  72.866 116.681  0.00  0.00     0.028 C 
ATOM     12  C   LIG d   1      -8.737  71.353 116.425  0.00  0.00     0.006 C 
ENDBRANCH   8  11
ENDBRANCH   7   8
ENDBRANCH   1   7
BRANCH   6  13
ATOM     13  N   LIG d   1      -5.163  76.510 117.029  0.00  0.00    -0.311 N 
ATOM     14  C   LIG d   1      -4.207  76.835 116.160  0.00  0.00     0.210 C 
ATOM     15  C   LIG d   1      -2.856  76.155 116.401  0.00  0.00     0.109 C 
ATOM     16  O   LIG d   1      -4.341  77.647 115.232  0.00  0.00    -0.276 OA
ATOM     17  H   LIG d   1      -4.958  75.868 117.770  0.00  0.00     0.149 HD
ENDBRANCH   6  13
BRANCH   5  18
ATOM     18  N   LIG d   1      -5.929  79.433 117.476  0.00  0.00     0.381 N 
ATOM     19  H   LIG d   1      -5.127  79.500 118.069  0.00  0.00    -0.090 HD
ATOM     20  H   LIG d   1      -6.473  80.271 117.586  0.00  0.00    -0.090 HD
ATOM     21  H   LIG d   1      -5.642  79.338 116.527  0.00  0.00    -0.090 HD
ENDBRANCH   5  18
BRANCH   3  22
ATOM     22  C   LIG d   1     -10.335  77.949 118.628  0.00  0.00     0.382 C 
ATOM     23  O   LIG d   1     -11.339  77.242 118.373  0.00  0.00    -0.241 OA
ATOM     24  O   LIG d   1     -10.456  78.943 119.370  0.00  0.00    -0.241 OA
ENDBRANCH   3  22
TORSDOF 7
ENDMDL
MODEL 2
REMARK VINA RESULT:      -5.5     14.459     17.210
REMARK  7 active torsions:
REMARK  status: ('A' for Active; 'I' for Inactive)
REMARK    1  A    between atoms: C_2  and  C_3 
REMARK    2  A    between atoms: C_3  and  O_6 
REMARK    3  A    between atoms: C_3  and  C_4 
REMARK    4  A    between atoms: C_7  and  O_6 
REMARK    5  A    between atoms: C_9  and  C_10 
REMARK    6  A    between atoms: N_15  and  C_14 
REMARK    7  A    between atoms: N_20  and  C_19 
REMARK       I    between atoms: C_22  and  N_20 
ROOT
ATOM      1  C   LIG d   1      -5.695  93.367 117.136  0.00  0.00     0.161 C 
ATOM      2  C   LIG d   1      -6.600  92.403 116.662  0.00  0.00     0.016 C 
ATOM      3  C   LIG d   1      -6.269  91.039 116.499  0.00  0.00     0.038 C 
ATOM      4  C   LIG d   1      -5.047  90.514 116.945  0.00  0.00     0.028 C 
ATOM      5  C   LIG d   1      -3.918  91.539 116.963  0.00  0.00    -0.047 C 
ATOM      6  C   LIG d   1      -4.392  92.794 117.732  0.00  0.00     0.091 C 
ENDROOT
BRANCH   1   7
ATOM      7  O   LIG d   1      -6.349  94.223 118.093  0.00  0.00    -0.368 OA
BRANCH   7   8
ATOM      8  C   LIG d   1      -7.245  93.569 119.026  0.00  0.00     0.119 C 
BRANCH   8   9
ATOM      9  C   LIG d   1      -8.587  94.325 118.985  0.00  0.00     0.028 C 
ATOM     10  C   LIG d   1      -9.343  94.251 120.323  0.00  0.00     0.006 C 
ENDBRANCH   8   9
BRANCH   8  11
ATOM     11  C   LIG d   1      -6.746  93.706 120.467  0.00  0.00     0.028 C 
ATOM     12  C   LIG d   1      -6.085  92.422 120.993  0.00  0.00     0.006 C 
ENDBRANCH   8  11
ENDBRANCH   7   8
ENDBRANCH   1   7
BRANCH   6  13
ATOM     13  N   LIG d   1      -3.378  93.880 117.724  0.00  0.00    -0.311 N 
ATOM     14  C   LIG d   1      -2.825  94.374 118.831  0.00  0.00     0.210 C 
ATOM     15  C   LIG d   1      -1.817  95.504 118.601  0.00  0.00     0.109 C 
ATOM     16  O   LIG d   1      -3.051  93.962 119.979  0.00  0.00    -0.276 OA
ATOM     17  H   LIG d   1      -3.114  94.251 116.833  0.00  0.00     0.149 HD
ENDBRANCH   6  13
BRANCH   5  18
ATOM     18  N   LIG d   1      -2.741  90.896 117.576  0.00  0.00     0.381 N 
ATOM     19  H   LIG d   1      -1.976  91.540 117.598  0.00  0.00    -0.090 HD
ATOM     20  H   LIG d   1      -2.473  90.106 117.016  0.00  0.00    -0.090 HD
ATOM     21  H   LIG d   1      -2.959  90.597 118.501  0.00  0.00    -0.090 HD
ENDBRANCH   5  18
BRANCH   3  22
ATOM     22  C   LIG d   1      -7.152  90.190 115.848  0.00  0.00     0.382 C 
ATOM     23  O   LIG d   1      -8.067  89.623 116.492  0.00  0.00    -0.241 OA
ATOM     24  O   LIG d   1      -7.017  89.951 114.633  0.00  0.00    -0.241 OA
ENDBRANCH   3  22
TORSDOF 7
ENDMDL
MODEL 3
REMARK VINA RESULT:      -5.5     14.778     17.553
REMARK  7 active torsions:
REMARK  status: ('A' for Active; 'I' for Inactive)
REMARK    1  A    between atoms: C_2  and  C_3 
REMARK    2  A    between atoms: C_3  and  O_6 
REMARK    3  A    between atoms: C_3  and  C_4 
REMARK    4  A    between atoms: C_7  and  O_6 
REMARK    5  A    between atoms: C_9  and  C_10 
REMARK    6  A    between atoms: N_15  and  C_14 
REMARK    7  A    between atoms: N_20  and  C_19 
REMARK       I    between atoms: C_22  and  N_20 
ROOT
ATOM      1  C   LIG d   1      -6.016  93.205 117.712  0.00  0.00     0.161 C 
ATOM      2  C   LIG d   1      -6.812  92.223 117.100  0.00  0.00     0.016 C 
ATOM      3  C   LIG d   1      -6.296  91.008 116.594  0.00  0.00     0.038 C 
ATOM      4  C   LIG d   1      -4.963  90.624 116.801  0.00  0.00     0.028 C 
ATOM      5  C   LIG d   1      -4.012  91.805 116.968  0.00  0.00    -0.047 C 
ATOM      6  C   LIG d   1      -4.578  92.756 118.047  0.00  0.00     0.091 C 
ENDROOT
BRANCH   1   7
ATOM      7  O   LIG d   1      -6.674  93.701 118.894  0.00  0.00    -0.368 OA
BRANCH   7   8
ATOM      8  C   LIG d   1      -7.659  94.743 118.686  0.00  0.00     0.119 C 
BRANCH   8   9
ATOM      9  C   LIG d   1      -7.349  95.879 119.680  0.00  0.00     0.028 C 
ATOM     10  C   LIG d   1      -6.044  96.618 119.338  0.00  0.00     0.006 C 
ENDBRANCH   8   9
BRANCH   8  11
ATOM     11  C   LIG d   1      -9.066  94.260 119.049  0.00  0.00     0.028 C 
ATOM     12  C   LIG d   1      -9.332  94.283 120.562  0.00  0.00     0.006 C 
ENDBRANCH   8  11
ENDBRANCH   7   8
ENDBRANCH   1   7
BRANCH   6  13
ATOM     13  N   LIG d   1      -3.752  93.981 118.213  0.00  0.00    -0.311 N 
ATOM     14  C   LIG d   1      -2.790  94.098 119.126  0.00  0.00     0.210 C 
ATOM     15  C   LIG d   1      -2.073  95.451 119.141  0.00  0.00     0.109 C 
ATOM     16  O   LIG d   1      -2.440  93.197 119.904  0.00  0.00    -0.276 OA
ATOM     17  H   LIG d   1      -3.947  94.749 117.601  0.00  0.00     0.149 HD
ENDBRANCH   6  13
BRANCH   5  18
ATOM     18  N   LIG d   1      -2.685  91.263 117.314  0.00  0.00     0.381 N 
ATOM     19  H   LIG d   1      -2.786  90.356 117.725  0.00  0.00    -0.090 HD
ATOM     20  H   LIG d   1      -2.252  91.869 117.989  0.00  0.00    -0.090 HD
ATOM     21  H   LIG d   1      -2.117  91.204 116.498  0.00  0.00    -0.090 HD
ENDBRANCH   5  18
BRANCH   3  22
ATOM     22  C   LIG d   1      -7.109  90.179 115.835  0.00  0.00     0.382 C 
ATOM     23  O   LIG d   1      -8.060  89.567 116.377  0.00  0.00    -0.241 OA
ATOM     24  O   LIG d   1      -6.876  90.002 114.624  0.00  0.00    -0.241 OA
ENDBRANCH   3  22
TORSDOF 7
ENDMDL
MODEL 4
REMARK VINA RESULT:      -5.3     14.151     16.594
REMARK  7 active torsions:
REMARK  status: ('A' for Active; 'I' for Inactive)
REMARK    1  A    between atoms: C_2  and  C_3 
REMARK    2  A    between atoms: C_3  and  O_6 
REMARK    3  A    between atoms: C_3  and  C_4 
REMARK    4  A    between atoms: C_7  and  O_6 
REMARK    5  A    between atoms: C_9  and  C_10 
REMARK    6  A    between atoms: N_15  and  C_14 
REMARK    7  A    between atoms: N_20  and  C_19 
REMARK       I    between atoms: C_22  and  N_20 
ROOT
ATOM      1  C   LIG d   1      -4.093  91.565 117.813  0.00  0.00     0.161 C 
ATOM      2  C   LIG d   1      -4.680  90.760 116.823  0.00  0.00     0.016 C 
ATOM      3  C   LIG d   1      -5.836  91.134 116.099  0.00  0.00     0.038 C 
ATOM      4  C   LIG d   1      -6.398  92.415 116.211  0.00  0.00     0.028 C 
ATOM      5  C   LIG d   1      -6.141  93.073 117.562  0.00  0.00    -0.047 C 
ATOM      6  C   LIG d   1      -4.627  93.012 117.870  0.00  0.00     0.091 C 
ENDROOT
BRANCH   1   7
ATOM      7  O   LIG d   1      -2.660  91.566 117.655  0.00  0.00    -0.368 OA
BRANCH   7   8
ATOM      8  C   LIG d   1      -1.904  90.908 118.701  0.00  0.00     0.119 C 
BRANCH   8   9
ATOM      9  C   LIG d   1      -0.682  91.793 119.015  0.00  0.00     0.028 C 
ATOM     10  C   LIG d   1      -0.117  92.480 117.761  0.00  0.00     0.006 C 
ENDBRANCH   8   9
BRANCH   8  11
ATOM     11  C   LIG d   1      -1.326  89.575 118.217  0.00  0.00     0.028 C 
ATOM     12  C   LIG d   1      -2.274  88.391 118.460  0.00  0.00     0.006 C 
ENDBRANCH   8  11
ENDBRANCH   7   8
ENDBRANCH   1   7
BRANCH   6  13
ATOM     13  N   LIG d   1      -4.299  93.560 119.212  0.00  0.00    -0.311 N 
ATOM     14  C   LIG d   1      -3.311  94.426 119.429  0.00  0.00     0.210 C 
ATOM     15  C   LIG d   1      -3.130  94.848 120.890  0.00  0.00     0.109 C 
ATOM     16  O   LIG d   1      -2.587  94.909 118.545  0.00  0.00    -0.276 OA
ATOM     17  H   LIG d   1      -4.856  93.245 119.982  0.00  0.00     0.149 HD
ENDBRANCH   6  13
BRANCH   5  18
ATOM     18  N   LIG d   1      -6.661  94.452 117.492  0.00  0.00     0.381 N 
ATOM     19  H   LIG d   1      -7.645  94.452 117.675  0.00  0.00    -0.090 HD
ATOM     20  H   LIG d   1      -6.512  94.809 116.565  0.00  0.00    -0.090 HD
ATOM     21  H   LIG d   1      -6.192  95.028 118.157  0.00  0.00    -0.090 HD
ENDBRANCH   5  18
BRANCH   3  22
ATOM     22  C   LIG d   1      -6.464  90.208 115.281  0.00  0.00     0.382 C 
ATOM     23  O   LIG d   1      -7.716  90.123 115.276  0.00  0.00    -0.241 OA
ATOM     24  O   LIG d   1      -5.794  89.427 114.580  0.00  0.00    -0.241 OA
ENDBRANCH   3  22
TORSDOF 7
ENDMDL
MODEL 5
REMARK VINA RESULT:      -5.2      2.754      6.337
REMARK  7 active torsions:
REMARK  status: ('A' for Active; 'I' for Inactive)
REMARK    1  A    between atoms: C_2  and  C_3 
REMARK    2  A    between atoms: C_3  and  O_6 
REMARK    3  A    between atoms: C_3  and  C_4 
REMARK    4  A    between atoms: C_7  and  O_6 
REMARK    5  A    between atoms: C_9  and  C_10 
REMARK    6  A    between atoms: N_15  and  C_14 
REMARK    7  A    between atoms: N_20  and  C_19 
REMARK       I    between atoms: C_22  and  N_20 
ROOT
ATOM      1  C   LIG d   1      -7.865  78.157 117.903  0.00  0.00     0.161 C 
ATOM      2  C   LIG d   1      -7.441  76.968 117.285  0.00  0.00     0.016 C 
ATOM      3  C   LIG d   1      -8.304  75.880 117.017  0.00  0.00     0.038 C 
ATOM      4  C   LIG d   1      -9.690  75.968 117.212  0.00  0.00     0.028 C 
ATOM      5  C   LIG d   1     -10.087  76.959 118.300  0.00  0.00    -0.047 C 
ATOM      6  C   LIG d   1      -9.395  78.313 118.022  0.00  0.00     0.091 C 
ENDROOT
BRANCH   1   7
ATOM      7  O   LIG d   1      -7.297  79.292 117.220  0.00  0.00    -0.368 OA
BRANCH   7   8
ATOM      8  C   LIG d   1      -6.358  80.089 117.982  0.00  0.00     0.119 C 
BRANCH   8   9
ATOM      9  C   LIG d   1      -6.729  81.570 117.770  0.00  0.00     0.028 C 
ATOM     10  C   LIG d   1      -6.749  82.365 119.086  0.00  0.00     0.006 C 
ENDBRANCH   8   9
BRANCH   8  11
ATOM     11  C   LIG d   1      -4.934  79.947 117.436  0.00  0.00     0.028 C 
ATOM     12  C   LIG d   1      -4.166  78.778 118.075  0.00  0.00     0.006 C 
ENDBRANCH   8  11
ENDBRANCH   7   8
ENDBRANCH   1   7
BRANCH   6  13
ATOM     13  N   LIG d   1      -9.663  79.316 119.085  0.00  0.00    -0.311 N 
ATOM     14  C   LIG d   1     -10.098  80.550 118.837  0.00  0.00     0.210 C 
ATOM     15  C   LIG d   1     -10.291  81.430 120.076  0.00  0.00     0.109 C 
ATOM     16  O   LIG d   1     -10.373  80.990 117.710  0.00  0.00    -0.276 OA
ATOM     17  H   LIG d   1      -9.497  79.034 120.031  0.00  0.00     0.149 HD
ENDBRANCH   6  13
BRANCH   5  18
ATOM     18  N   LIG d   1     -11.559  77.052 118.303  0.00  0.00     0.381 N 
ATOM     19  H   LIG d   1     -11.941  76.398 117.649  0.00  0.00    -0.090 HD
ATOM     20  H   LIG d   1     -11.827  77.977 118.017  0.00  0.00    -0.090 HD
ATOM     21  H   LIG d   1     -11.911  76.863 119.216  0.00  0.00    -0.090 HD
ENDBRANCH   5  18
BRANCH   3  22
ATOM     22  C   LIG d   1      -7.774  74.674 116.584  0.00  0.00     0.382 C 
ATOM     23  O   LIG d   1      -6.751  74.663 115.857  0.00  0.00    -0.241 OA
ATOM     24  O   LIG d   1      -8.332  73.599 116.875  0.00  0.00    -0.241 OA
ENDBRANCH   3  22
TORSDOF 7
ENDMDL
MODEL 6
REMARK VINA RESULT:      -5.1     14.977     17.329
REMARK  7 active torsions:
REMARK  status: ('A' for Active; 'I' for Inactive)
REMARK    1  A    between atoms: C_2  and  C_3 
REMARK    2  A    between atoms: C_3  and  O_6 
REMARK    3  A    between atoms: C_3  and  C_4 
REMARK    4  A    between atoms: C_7  and  O_6 
REMARK    5  A    between atoms: C_9  and  C_10 
REMARK    6  A    between atoms: N_15  and  C_14 
REMARK    7  A    between atoms: N_20  and  C_19 
REMARK       I    between atoms: C_22  and  N_20 
ROOT
ATOM      1  C   LIG d   1      -4.888  91.920 118.990  0.00  0.00     0.161 C 
ATOM      2  C   LIG d   1      -5.294  91.073 117.945  0.00  0.00     0.016 C 
ATOM      3  C   LIG d   1      -6.130  91.491 116.884  0.00  0.00     0.038 C 
ATOM      4  C   LIG d   1      -6.496  92.835 116.714  0.00  0.00     0.028 C 
ATOM      5  C   LIG d   1      -6.526  93.624 118.019  0.00  0.00    -0.047 C 
ATOM      6  C   LIG d   1      -5.186  93.416 118.762  0.00  0.00     0.091 C 
ENDROOT
BRANCH   1   7
ATOM      7  O   LIG d   1      -3.486  91.724 119.260  0.00  0.00    -0.368 OA
BRANCH   7   8
ATOM      8  C   LIG d   1      -2.590  91.884 118.133  0.00  0.00     0.119 C 
BRANCH   8   9
ATOM      9  C   LIG d   1      -1.785  90.577 117.993  0.00  0.00     0.028 C 
ATOM     10  C   LIG d   1      -0.356  90.821 117.479  0.00  0.00     0.006 C 
ENDBRANCH   8   9
BRANCH   8  11
ATOM     11  C   LIG d   1      -1.550  92.976 118.397  0.00  0.00     0.028 C 
ATOM     12  C   LIG d   1      -1.764  94.226 117.530  0.00  0.00     0.006 C 
ENDBRANCH   8  11
ENDBRANCH   7   8
ENDBRANCH   1   7
BRANCH   6  13
ATOM     13  N   LIG d   1      -5.164  94.086 120.088  0.00  0.00    -0.311 N 
ATOM     14  C   LIG d   1      -4.646  95.297 120.290  0.00  0.00     0.210 C 
ATOM     15  C   LIG d   1      -4.708  95.794 121.738  0.00  0.00     0.109 C 
ATOM     16  O   LIG d   1      -4.170  96.019 119.401  0.00  0.00    -0.276 OA
ATOM     17  H   LIG d   1      -5.558  93.584 120.860  0.00  0.00     0.149 HD
ENDBRANCH   6  13
BRANCH   5  18
ATOM     18  N   LIG d   1      -6.787  95.035 117.680  0.00  0.00     0.381 N 
ATOM     19  H   LIG d   1      -6.311  95.633 118.327  0.00  0.00    -0.090 HD
ATOM     20  H   LIG d   1      -7.773  95.211 117.756  0.00  0.00    -0.090 HD
ATOM     21  H   LIG d   1      -6.478  95.226 116.752  0.00  0.00    -0.090 HD
ENDBRANCH   5  18
BRANCH   3  22
ATOM     22  C   LIG d   1      -6.641  90.552 116.001  0.00  0.00     0.382 C 
ATOM     23  O   LIG d   1      -6.156  90.447 114.849  0.00  0.00    -0.241 OA
ATOM     24  O   LIG d   1      -7.610  89.841 116.327  0.00  0.00    -0.241 OA
ENDBRANCH   3  22
TORSDOF 7
ENDMDL
MODEL 7
REMARK VINA RESULT:      -5.0      2.049      4.779
REMARK  7 active torsions:
REMARK  status: ('A' for Active; 'I' for Inactive)
REMARK    1  A    between atoms: C_2  and  C_3 
REMARK    2  A    between atoms: C_3  and  O_6 
REMARK    3  A    between atoms: C_3  and  C_4 
REMARK    4  A    between atoms: C_7  and  O_6 
REMARK    5  A    between atoms: C_9  and  C_10 
REMARK    6  A    between atoms: N_15  and  C_14 
REMARK    7  A    between atoms: N_20  and  C_19 
REMARK       I    between atoms: C_22  and  N_20 
ROOT
ATOM      1  C   LIG d   1      -5.972  76.165 116.413  0.00  0.00     0.161 C 
ATOM      2  C   LIG d   1      -6.552  74.920 116.117  0.00  0.00     0.016 C 
ATOM      3  C   LIG d   1      -7.835  74.532 116.569  0.00  0.00     0.038 C 
ATOM      4  C   LIG d   1      -8.692  75.428 117.225  0.00  0.00     0.028 C 
ATOM      5  C   LIG d   1      -7.955  76.526 117.984  0.00  0.00    -0.047 C 
ATOM      6  C   LIG d   1      -6.937  77.197 117.034  0.00  0.00     0.091 C 
ENDROOT
BRANCH   1   7
ATOM      7  O   LIG d   1      -5.351  76.707 115.231  0.00  0.00    -0.368 OA
BRANCH   7   8
ATOM      8  C   LIG d   1      -3.975  76.319 114.999  0.00  0.00     0.119 C 
BRANCH   8   9
ATOM      9  C   LIG d   1      -3.384  75.875 116.352  0.00  0.00     0.028 C 
ATOM     10  C   LIG d   1      -2.383  74.717 116.204  0.00  0.00     0.006 C 
ENDBRANCH   8   9
BRANCH   8  11
ATOM     11  C   LIG d   1      -3.125  77.514 114.559  0.00  0.00     0.028 C 
ATOM     12  C   LIG d   1      -2.924  78.548 115.679  0.00  0.00     0.006 C 
ENDBRANCH   8  11
ENDBRANCH   7   8
ENDBRANCH   1   7
BRANCH   6  13
ATOM     13  N   LIG d   1      -6.114  78.226 117.720  0.00  0.00    -0.311 N 
ATOM     14  C   LIG d   1      -6.463  79.509 117.802  0.00  0.00     0.210 C 
ATOM     15  C   LIG d   1      -5.462  80.406 118.536  0.00  0.00     0.109 C 
ATOM     16  O   LIG d   1      -7.523  79.983 117.365  0.00  0.00    -0.276 OA
ATOM     17  H   LIG d   1      -5.253  77.923 118.130  0.00  0.00     0.149 HD
ENDBRANCH   6  13
BRANCH   5  18
ATOM     18  N   LIG d   1      -8.967  77.465 118.504  0.00  0.00     0.381 N 
ATOM     19  H   LIG d   1      -9.517  77.015 119.208  0.00  0.00    -0.090 HD
ATOM     20  H   LIG d   1      -9.576  77.735 117.752  0.00  0.00    -0.090 HD
ATOM     21  H   LIG d   1      -8.521  78.270 118.885  0.00  0.00    -0.090 HD
ENDBRANCH   5  18
BRANCH   3  22
ATOM     22  C   LIG d   1      -8.256  73.222 116.400  0.00  0.00     0.382 C 
ATOM     23  O   LIG d   1      -9.452  72.914 116.621  0.00  0.00    -0.241 OA
ATOM     24  O   LIG d   1      -7.444  72.335 116.072  0.00  0.00    -0.241 OA
ENDBRANCH   3  22
TORSDOF 7
ENDMDL
MODEL 8
REMARK VINA RESULT:      -5.0      2.912      6.501
REMARK  7 active torsions:
REMARK  status: ('A' for Active; 'I' for Inactive)
REMARK    1  A    between atoms: C_2  and  C_3 
REMARK    2  A    between atoms: C_3  and  O_6 
REMARK    3  A    between atoms: C_3  and  C_4 
REMARK    4  A    between atoms: C_7  and  O_6 
REMARK    5  A    between atoms: C_9  and  C_10 
REMARK    6  A    between atoms: N_15  and  C_14 
REMARK    7  A    between atoms: N_20  and  C_19 
REMARK       I    between atoms: C_22  and  N_20 
ROOT
ATOM      1  C   LIG d   1      -7.760  78.720 117.984  0.00  0.00     0.161 C 
ATOM      2  C   LIG d   1      -7.304  77.562 117.333  0.00  0.00     0.016 C 
ATOM      3  C   LIG d   1      -8.106  76.414 117.134  0.00  0.00     0.038 C 
ATOM      4  C   LIG d   1      -9.474  76.404 117.443  0.00  0.00     0.028 C 
ATOM      5  C   LIG d   1      -9.851  77.370 118.561  0.00  0.00    -0.047 C 
ATOM      6  C   LIG d   1      -9.282  78.768 118.228  0.00  0.00     0.091 C 
ENDROOT
BRANCH   1   7
ATOM      7  O   LIG d   1      -7.332  79.890 117.258  0.00  0.00    -0.368 OA
BRANCH   7   8
ATOM      8  C   LIG d   1      -6.287  80.678 117.879  0.00  0.00     0.119 C 
BRANCH   8   9
ATOM      9  C   LIG d   1      -5.865  79.953 119.171  0.00  0.00     0.028 C 
ATOM     10  C   LIG d   1      -4.402  79.482 119.130  0.00  0.00     0.006 C 
ENDBRANCH   8   9
BRANCH   8  11
ATOM     11  C   LIG d   1      -6.814  82.043 118.333  0.00  0.00     0.028 C 
ATOM     12  C   LIG d   1      -6.544  82.321 119.820  0.00  0.00     0.006 C 
ENDBRANCH   8  11
ENDBRANCH   7   8
ENDBRANCH   1   7
BRANCH   6  13
ATOM     13  N   LIG d   1      -9.533  79.755 119.311  0.00  0.00    -0.311 N 
ATOM     14  C   LIG d   1     -10.119  80.934 119.108  0.00  0.00     0.210 C 
ATOM     15  C   LIG d   1     -10.263  81.808 120.358  0.00  0.00     0.109 C 
ATOM     16  O   LIG d   1     -10.561  81.325 118.018  0.00  0.00    -0.276 OA
ATOM     17  H   LIG d   1      -9.234  79.505 120.234  0.00  0.00     0.149 HD
ENDBRANCH   6  13
BRANCH   5  18
ATOM     18  N   LIG d   1     -11.321  77.358 118.685  0.00  0.00     0.381 N 
ATOM     19  H   LIG d   1     -11.676  76.463 118.411  0.00  0.00    -0.090 HD
ATOM     20  H   LIG d   1     -11.705  78.052 118.068  0.00  0.00    -0.090 HD
ATOM     21  H   LIG d   1     -11.585  77.555 119.625  0.00  0.00    -0.090 HD
ENDBRANCH   5  18
BRANCH   3  22
ATOM     22  C   LIG d   1      -7.529  75.247 116.658  0.00  0.00     0.382 C 
ATOM     23  O   LIG d   1      -8.090  74.143 116.860  0.00  0.00    -0.241 OA
ATOM     24  O   LIG d   1      -6.432  75.279 116.069  0.00  0.00    -0.241 OA
ENDBRANCH   3  22
TORSDOF 7
ENDMDL
MODEL 9
REMARK VINA RESULT:      -4.8     15.828     18.643
REMARK  7 active torsions:
REMARK  status: ('A' for Active; 'I' for Inactive)
REMARK    1  A    between atoms: C_2  and  C_3 
REMARK    2  A    between atoms: C_3  and  O_6 
REMARK    3  A    between atoms: C_3  and  C_4 
REMARK    4  A    between atoms: C_7  and  O_6 
REMARK    5  A    between atoms: C_9  and  C_10 
REMARK    6  A    between atoms: N_15  and  C_14 
REMARK    7  A    between atoms: N_20  and  C_19 
REMARK       I    between atoms: C_22  and  N_20 
ROOT
ATOM      1  C   LIG d   1      -5.282  93.148 119.654  0.00  0.00     0.161 C 
ATOM      2  C   LIG d   1      -5.285  92.072 118.750  0.00  0.00     0.016 C 
ATOM      3  C   LIG d   1      -6.184  91.972 117.663  0.00  0.00     0.038 C 
ATOM      4  C   LIG d   1      -7.046  93.023 117.315  0.00  0.00     0.028 C 
ATOM      5  C   LIG d   1      -7.428  93.909 118.496  0.00  0.00    -0.047 C 
ATOM      6  C   LIG d   1      -6.141  94.356 119.226  0.00  0.00     0.091 C 
ENDROOT
BRANCH   1   7
ATOM      7  O   LIG d   1      -3.926  93.564 119.913  0.00  0.00    -0.368 OA
BRANCH   7   8
ATOM      8  C   LIG d   1      -3.319  94.418 118.913  0.00  0.00     0.119 C 
BRANCH   8   9
ATOM      9  C   LIG d   1      -2.052  93.705 118.402  0.00  0.00     0.028 C 
ATOM     10  C   LIG d   1      -1.321  94.513 117.317  0.00  0.00     0.006 C 
ENDBRANCH   8   9
BRANCH   8  11
ATOM     11  C   LIG d   1      -2.826  95.732 119.526  0.00  0.00     0.028 C 
ATOM     12  C   LIG d   1      -2.801  95.699 121.063  0.00  0.00     0.006 C 
ENDBRANCH   8  11
ENDBRANCH   7   8
ENDBRANCH   1   7
BRANCH   6  13
ATOM     13  N   LIG d   1      -6.428  95.158 120.443  0.00  0.00    -0.311 N 
ATOM     14  C   LIG d   1      -6.419  96.489 120.463  0.00  0.00     0.210 C 
ATOM     15  C   LIG d   1      -6.723  97.118 121.827  0.00  0.00     0.109 C 
ATOM     16  O   LIG d   1      -6.219  97.210 119.474  0.00  0.00    -0.276 OA
ATOM     17  H   LIG d   1      -6.632  94.653 121.284  0.00  0.00     0.149 HD
ENDBRANCH   6  13
BRANCH   5  18
ATOM     18  N   LIG d   1      -8.216  95.039 117.968  0.00  0.00     0.381 N 
ATOM     19  H   LIG d   1      -8.036  95.860 118.512  0.00  0.00    -0.090 HD
ATOM     20  H   LIG d   1      -9.193  94.818 118.044  0.00  0.00    -0.090 HD
ATOM     21  H   LIG d   1      -7.978  95.205 117.015  0.00  0.00    -0.090 HD
ENDBRANCH   5  18
BRANCH   3  22
ATOM     22  C   LIG d   1      -6.253  90.795 116.935  0.00  0.00     0.382 C 
ATOM     23  O   LIG d   1      -7.370  90.297 116.651  0.00  0.00    -0.241 OA
ATOM     24  O   LIG d   1      -5.213  90.200 116.595  0.00  0.00    -0.241 OA
ENDBRANCH   3  22
TORSDOF 7
ENDMDL
