MODEL 1
REMARK VINA RESULT:      -6.5      0.000      0.000
REMARK  7 active torsions:
REMARK  status: ('A' for Active; 'I' for Inactive)
REMARK    1  A    between atoms: C_2  and  C_3 
REMARK    2  A    between atoms: C_3  and  O_6 
REMARK    3  A    between atoms: C_3  and  C_4 
REMARK    4  A    between atoms: C_7  and  O_6 
REMARK    5  A    between atoms: C_9  and  C_10 
REMARK    6  A    between atoms: N_15  and  C_14 
REMARK    7  A    between atoms: N_20  and  C_19 
REMARK       I    between atoms: C_22  and  N_20 
ROOT
ATOM      1  C   LIG d   1       0.199  82.970 111.150  0.00  0.00     0.161 C 
ATOM      2  C   LIG d   1      -0.867  82.695 112.023  0.00  0.00     0.016 C 
ATOM      3  C   LIG d   1      -1.404  81.401 112.213  0.00  0.00     0.038 C 
ATOM      4  C   LIG d   1      -0.808  80.261 111.652  0.00  0.00     0.028 C 
ATOM      5  C   LIG d   1      -0.042  80.550 110.366  0.00  0.00    -0.047 C 
ATOM      6  C   LIG d   1       0.934  81.723 110.614  0.00  0.00     0.091 C 
ENDROOT
BRANCH   1   7
ATOM      7  O   LIG d   1       1.132  83.867 111.785  0.00  0.00    -0.368 OA
BRANCH   7   8
ATOM      8  C   LIG d   1       1.100  85.243 111.334  0.00  0.00     0.119 C 
BRANCH   8   9
ATOM      9  C   LIG d   1       0.205  85.299 110.080  0.00  0.00     0.028 C 
ATOM     10  C   LIG d   1      -0.859  86.406 110.168  0.00  0.00     0.006 C 
ENDBRANCH   8   9
BRANCH   8  11
ATOM     11  C   LIG d   1       2.482  85.709 110.866  0.00  0.00     0.028 C 
ATOM     12  C   LIG d   1       3.613  84.777 111.330  0.00  0.00     0.006 C 
ENDBRANCH   8  11
ENDBRANCH   7   8
ENDBRANCH   1   7
BRANCH   6  13
ATOM     13  N   LIG d   1       1.663  82.125 109.383  0.00  0.00    -0.311 N 
ATOM     14  C   LIG d   1       2.965  81.916 109.201  0.00  0.00     0.210 C 
ATOM     15  C   LIG d   1       3.522  82.426 107.869  0.00  0.00     0.109 C 
ATOM     16  O   LIG d   1       3.706  81.328 110.004  0.00  0.00    -0.276 OA
ATOM     17  H   LIG d   1       1.132  82.580 108.667  0.00  0.00     0.149 HD
ENDBRANCH   6  13
BRANCH   5  18
ATOM     18  N   LIG d   1       0.641  79.305 109.965  0.00  0.00     0.381 N 
ATOM     19  H   LIG d   1       1.335  79.066 110.645  0.00  0.00    -0.090 HD
ATOM     20  H   LIG d   1       1.101  79.455 109.084  0.00  0.00    -0.090 HD
ATOM     21  H   LIG d   1      -0.020  78.565 109.881  0.00  0.00    -0.090 HD
ENDBRANCH   5  18
BRANCH   3  22
ATOM     22  C   LIG d   1      -2.574  81.242 112.940  0.00  0.00     0.382 C 
ATOM     23  O   LIG d   1      -3.074  80.100 113.081  0.00  0.00    -0.241 OA
ATOM     24  O   LIG d   1      -3.159  82.232 113.419  0.00  0.00    -0.241 OA
ENDBRANCH   3  22
TORSDOF 7
ENDMDL
MODEL 2
REMARK VINA RESULT:      -6.4      2.652      3.817
REMARK  7 active torsions:
REMARK  status: ('A' for Active; 'I' for Inactive)
REMARK    1  A    between atoms: C_2  and  C_3 
REMARK    2  A    between atoms: C_3  and  O_6 
REMARK    3  A    between atoms: C_3  and  C_4 
REMARK    4  A    between atoms: C_7  and  O_6 
REMARK    5  A    between atoms: C_9  and  C_10 
REMARK    6  A    between atoms: N_15  and  C_14 
REMARK    7  A    between atoms: N_20  and  C_19 
REMARK       I    between atoms: C_22  and  N_20 
ROOT
ATOM      1  C   LIG d   1       2.430  84.936 110.112  0.00  0.00     0.161 C 
ATOM      2  C   LIG d   1       1.382  85.752 110.568  0.00  0.00     0.016 C 
ATOM      3  C   LIG d   1       0.091  85.262 110.875  0.00  0.00     0.038 C 
ATOM      4  C   LIG d   1      -0.196  83.889 110.891  0.00  0.00     0.028 C 
ATOM      5  C   LIG d   1       0.687  83.075 109.952  0.00  0.00    -0.047 C 
ATOM      6  C   LIG d   1       2.168  83.420 110.230  0.00  0.00     0.091 C 
ENDROOT
BRANCH   1   7
ATOM      7  O   LIG d   1       3.653  85.287 110.791  0.00  0.00    -0.368 OA
BRANCH   7   8
ATOM      8  C   LIG d   1       3.508  86.067 112.003  0.00  0.00     0.119 C 
BRANCH   8   9
ATOM      9  C   LIG d   1       4.583  87.171 111.974  0.00  0.00     0.028 C 
ATOM     10  C   LIG d   1       4.480  88.122 113.177  0.00  0.00     0.006 C 
ENDBRANCH   8   9
BRANCH   8  11
ATOM     11  C   LIG d   1       3.820  85.229 113.246  0.00  0.00     0.028 C 
ATOM     12  C   LIG d   1       2.555  84.775 113.991  0.00  0.00     0.006 C 
ENDBRANCH   8  11
ENDBRANCH   7   8
ENDBRANCH   1   7
BRANCH   6  13
ATOM     13  N   LIG d   1       3.096  82.729 109.296  0.00  0.00    -0.311 N 
ATOM     14  C   LIG d   1       3.740  81.604 109.602  0.00  0.00     0.210 C 
ATOM     15  C   LIG d   1       4.664  81.069 108.503  0.00  0.00     0.109 C 
ATOM     16  O   LIG d   1       3.609  80.981 110.666  0.00  0.00    -0.276 OA
ATOM     17  H   LIG d   1       3.236  83.150 108.399  0.00  0.00     0.149 HD
ENDBRANCH   6  13
BRANCH   5  18
ATOM     18  N   LIG d   1       0.374  81.650 110.170  0.00  0.00     0.381 N 
ATOM     19  H   LIG d   1       0.815  81.331 111.010  0.00  0.00    -0.090 HD
ATOM     20  H   LIG d   1       0.738  81.116 109.401  0.00  0.00    -0.090 HD
ATOM     21  H   LIG d   1      -0.612  81.523 110.235  0.00  0.00    -0.090 HD
ENDBRANCH   5  18
BRANCH   3  22
ATOM     22  C   LIG d   1      -0.939  86.154 111.132  0.00  0.00     0.382 C 
ATOM     23  O   LIG d   1      -1.275  86.992 110.261  0.00  0.00    -0.241 OA
ATOM     24  O   LIG d   1      -1.507  86.161 112.241  0.00  0.00    -0.241 OA
ENDBRANCH   3  22
TORSDOF 7
ENDMDL
MODEL 3
REMARK VINA RESULT:      -6.3      1.796      5.123
REMARK  7 active torsions:
REMARK  status: ('A' for Active; 'I' for Inactive)
REMARK    1  A    between atoms: C_2  and  C_3 
REMARK    2  A    between atoms: C_3  and  O_6 
REMARK    3  A    between atoms: C_3  and  C_4 
REMARK    4  A    between atoms: C_7  and  O_6 
REMARK    5  A    between atoms: C_9  and  C_10 
REMARK    6  A    between atoms: N_15  and  C_14 
REMARK    7  A    between atoms: N_20  and  C_19 
REMARK       I    between atoms: C_22  and  N_20 
ROOT
ATOM      1  C   LIG d   1       2.020  83.035 111.248  0.00  0.00     0.161 C 
ATOM      2  C   LIG d   1       3.112  83.085 110.365  0.00  0.00     0.016 C 
ATOM      3  C   LIG d   1       3.171  82.351 109.158  0.00  0.00     0.038 C 
ATOM      4  C   LIG d   1       2.069  81.629 108.675  0.00  0.00     0.028 C 
ATOM      5  C   LIG d   1       1.133  81.144 109.777  0.00  0.00    -0.047 C 
ATOM      6  C   LIG d   1       0.763  82.340 110.684  0.00  0.00     0.091 C 
ENDROOT
BRANCH   1   7
ATOM      7  O   LIG d   1       1.697  84.364 111.701  0.00  0.00    -0.368 OA
BRANCH   7   8
ATOM      8  C   LIG d   1       2.207  85.454 110.894  0.00  0.00     0.119 C 
BRANCH   8   9
ATOM      9  C   LIG d   1       2.813  86.497 111.854  0.00  0.00     0.028 C 
ATOM     10  C   LIG d   1       4.346  86.564 111.756  0.00  0.00     0.006 C 
ENDBRANCH   8   9
BRANCH   8  11
ATOM     11  C   LIG d   1       1.076  86.185 110.164  0.00  0.00     0.028 C 
ATOM     12  C   LIG d   1       0.712  85.529 108.822  0.00  0.00     0.006 C 
ENDBRANCH   8  11
ENDBRANCH   7   8
ENDBRANCH   1   7
BRANCH   6  13
ATOM     13  N   LIG d   1      -0.083  81.936 111.837  0.00  0.00    -0.311 N 
ATOM     14  C   LIG d   1      -1.096  82.670 112.295  0.00  0.00     0.210 C 
ATOM     15  C   LIG d   1      -1.826  82.080 113.505  0.00  0.00     0.109 C 
ATOM     16  O   LIG d   1      -1.480  83.737 111.793  0.00  0.00    -0.276 OA
ATOM     17  H   LIG d   1       0.138  81.068 112.284  0.00  0.00     0.149 HD
ENDBRANCH   6  13
BRANCH   5  18
ATOM     18  N   LIG d   1      -0.039  80.528 109.126  0.00  0.00     0.381 N 
ATOM     19  H   LIG d   1      -0.606  81.239 108.707  0.00  0.00    -0.090 HD
ATOM     20  H   LIG d   1      -0.588  80.057 109.823  0.00  0.00    -0.090 HD
ATOM     21  H   LIG d   1       0.258  79.878 108.432  0.00  0.00    -0.090 HD
ENDBRANCH   5  18
BRANCH   3  22
ATOM     22  C   LIG d   1       4.356  82.303 108.440  0.00  0.00     0.382 C 
ATOM     23  O   LIG d   1       4.432  81.602 107.402  0.00  0.00    -0.241 OA
ATOM     24  O   LIG d   1       5.363  82.916 108.842  0.00  0.00    -0.241 OA
ENDBRANCH   3  22
TORSDOF 7
ENDMDL
MODEL 4
REMARK VINA RESULT:      -6.2      2.205      3.942
REMARK  7 active torsions:
REMARK  status: ('A' for Active; 'I' for Inactive)
REMARK    1  A    between atoms: C_2  and  C_3 
REMARK    2  A    between atoms: C_3  and  O_6 
REMARK    3  A    between atoms: C_3  and  C_4 
REMARK    4  A    between atoms: C_7  and  O_6 
REMARK    5  A    between atoms: C_9  and  C_10 
REMARK    6  A    between atoms: N_15  and  C_14 
REMARK    7  A    between atoms: N_20  and  C_19 
REMARK       I    between atoms: C_22  and  N_20 
ROOT
ATOM      1  C   LIG d   1       1.564  82.322 112.263  0.00  0.00     0.161 C 
ATOM      2  C   LIG d   1       0.403  81.549 112.428  0.00  0.00     0.016 C 
ATOM      3  C   LIG d   1      -0.904  82.084 112.357  0.00  0.00     0.038 C 
ATOM      4  C   LIG d   1      -1.142  83.410 111.963  0.00  0.00     0.028 C 
ATOM      5  C   LIG d   1       0.014  84.353 112.279  0.00  0.00    -0.047 C 
ATOM      6  C   LIG d   1       1.322  83.747 111.723  0.00  0.00     0.091 C 
ENDROOT
BRANCH   1   7
ATOM      7  O   LIG d   1       2.502  81.620 111.423  0.00  0.00    -0.368 OA
BRANCH   7   8
ATOM      8  C   LIG d   1       2.306  81.759 109.994  0.00  0.00     0.119 C 
BRANCH   8   9
ATOM      9  C   LIG d   1       2.137  80.343 109.410  0.00  0.00     0.028 C 
ATOM     10  C   LIG d   1       0.681  80.041 109.018  0.00  0.00     0.006 C 
ENDBRANCH   8   9
BRANCH   8  11
ATOM     11  C   LIG d   1       3.553  82.332 109.314  0.00  0.00     0.028 C 
ATOM     12  C   LIG d   1       4.373  81.262 108.575  0.00  0.00     0.006 C 
ENDBRANCH   8  11
ENDBRANCH   7   8
ENDBRANCH   1   7
BRANCH   6  13
ATOM     13  N   LIG d   1       2.515  84.565 112.062  0.00  0.00    -0.311 N 
ATOM     14  C   LIG d   1       2.957  85.567 111.304  0.00  0.00     0.210 C 
ATOM     15  C   LIG d   1       4.215  86.267 111.827  0.00  0.00     0.109 C 
ATOM     16  O   LIG d   1       2.409  85.962 110.264  0.00  0.00    -0.276 OA
ATOM     17  H   LIG d   1       3.003  84.333 112.905  0.00  0.00     0.149 HD
ENDBRANCH   6  13
BRANCH   5  18
ATOM     18  N   LIG d   1      -0.310  85.667 111.693  0.00  0.00     0.381 N 
ATOM     19  H   LIG d   1       0.137  85.760 110.803  0.00  0.00    -0.090 HD
ATOM     20  H   LIG d   1       0.040  86.388 112.299  0.00  0.00    -0.090 HD
ATOM     21  H   LIG d   1      -1.296  85.760 111.589  0.00  0.00    -0.090 HD
ENDBRANCH   5  18
BRANCH   3  22
ATOM     22  C   LIG d   1      -1.988  81.300 112.721  0.00  0.00     0.382 C 
ATOM     23  O   LIG d   1      -3.144  81.618 112.350  0.00  0.00    -0.241 OA
ATOM     24  O   LIG d   1      -1.831  80.305 113.452  0.00  0.00    -0.241 OA
ENDBRANCH   3  22
TORSDOF 7
ENDMDL
MODEL 5
REMARK VINA RESULT:      -6.2      2.242      5.000
REMARK  7 active torsions:
REMARK  status: ('A' for Active; 'I' for Inactive)
REMARK    1  A    between atoms: C_2  and  C_3 
REMARK    2  A    between atoms: C_3  and  O_6 
REMARK    3  A    between atoms: C_3  and  C_4 
REMARK    4  A    between atoms: C_7  and  O_6 
REMARK    5  A    between atoms: C_9  and  C_10 
REMARK    6  A    between atoms: N_15  and  C_14 
REMARK    7  A    between atoms: N_20  and  C_19 
REMARK       I    between atoms: C_22  and  N_20 
ROOT
ATOM      1  C   LIG d   1       0.657  82.807 110.914  0.00  0.00     0.161 C 
ATOM      2  C   LIG d   1       0.460  84.175 111.164  0.00  0.00     0.016 C 
ATOM      3  C   LIG d   1       0.719  85.186 110.209  0.00  0.00     0.038 C 
ATOM      4  C   LIG d   1       1.051  84.883 108.880  0.00  0.00     0.028 C 
ATOM      5  C   LIG d   1       1.750  83.537 108.723  0.00  0.00    -0.047 C 
ATOM      6  C   LIG d   1       0.913  82.450 109.435  0.00  0.00     0.091 C 
ENDROOT
BRANCH   1   7
ATOM      7  O   LIG d   1      -0.458  82.051 111.427  0.00  0.00    -0.368 OA
BRANCH   7   8
ATOM      8  C   LIG d   1      -0.816  82.301 112.808  0.00  0.00     0.119 C 
BRANCH   8   9
ATOM      9  C   LIG d   1       0.042  81.368 113.685  0.00  0.00     0.028 C 
ATOM     10  C   LIG d   1       0.676  82.103 114.877  0.00  0.00     0.006 C 
ENDBRANCH   8   9
BRANCH   8  11
ATOM     11  C   LIG d   1      -2.267  81.900 113.089  0.00  0.00     0.028 C 
ATOM     12  C   LIG d   1      -2.570  80.445 112.699  0.00  0.00     0.006 C 
ENDBRANCH   8  11
ENDBRANCH   7   8
ENDBRANCH   1   7
BRANCH   6  13
ATOM     13  N   LIG d   1       1.569  81.116 109.401  0.00  0.00    -0.311 N 
ATOM     14  C   LIG d   1       1.032  80.050 108.810  0.00  0.00     0.210 C 
ATOM     15  C   LIG d   1       1.865  78.768 108.909  0.00  0.00     0.109 C 
ATOM     16  O   LIG d   1      -0.039  80.053 108.186  0.00  0.00    -0.276 OA
ATOM     17  H   LIG d   1       2.456  81.033 109.857  0.00  0.00     0.149 HD
ENDBRANCH   6  13
BRANCH   5  18
ATOM     18  N   LIG d   1       1.914  83.286 107.278  0.00  0.00     0.381 N 
ATOM     19  H   LIG d   1       2.297  84.097 106.835  0.00  0.00    -0.090 HD
ATOM     20  H   LIG d   1       1.012  83.103 106.876  0.00  0.00    -0.090 HD
ATOM     21  H   LIG d   1       2.515  82.505 107.134  0.00  0.00    -0.090 HD
ENDBRANCH   5  18
BRANCH   3  22
ATOM     22  C   LIG d   1       0.684  86.518 110.592  0.00  0.00     0.382 C 
ATOM     23  O   LIG d   1      -0.415  87.076 110.821  0.00  0.00    -0.241 OA
ATOM     24  O   LIG d   1       1.736  87.181 110.668  0.00  0.00    -0.241 OA
ENDBRANCH   3  22
TORSDOF 7
ENDMDL
MODEL 6
REMARK VINA RESULT:      -6.1      2.912      5.631
REMARK  7 active torsions:
REMARK  status: ('A' for Active; 'I' for Inactive)
REMARK    1  A    between atoms: C_2  and  C_3 
REMARK    2  A    between atoms: C_3  and  O_6 
REMARK    3  A    between atoms: C_3  and  C_4 
REMARK    4  A    between atoms: C_7  and  O_6 
REMARK    5  A    between atoms: C_9  and  C_10 
REMARK    6  A    between atoms: N_15  and  C_14 
REMARK    7  A    between atoms: N_20  and  C_19 
REMARK       I    between atoms: C_22  and  N_20 
ROOT
ATOM      1  C   LIG d   1       2.787  84.566 111.493  0.00  0.00     0.161 C 
ATOM      2  C   LIG d   1       3.611  84.043 110.482  0.00  0.00     0.016 C 
ATOM      3  C   LIG d   1       3.151  83.147 109.490  0.00  0.00     0.038 C 
ATOM      4  C   LIG d   1       1.792  82.828 109.351  0.00  0.00     0.028 C 
ATOM      5  C   LIG d   1       1.008  82.935 110.655  0.00  0.00    -0.047 C 
ATOM      6  C   LIG d   1       1.278  84.317 111.291  0.00  0.00     0.091 C 
ENDROOT
BRANCH   1   7
ATOM      7  O   LIG d   1       3.046  85.975 111.653  0.00  0.00    -0.368 OA
BRANCH   7   8
ATOM      8  C   LIG d   1       4.237  86.323 112.401  0.00  0.00     0.119 C 
BRANCH   8   9
ATOM      9  C   LIG d   1       4.089  85.725 113.813  0.00  0.00     0.028 C 
ATOM     10  C   LIG d   1       2.993  86.424 114.635  0.00  0.00     0.006 C 
ENDBRANCH   8   9
BRANCH   8  11
ATOM     11  C   LIG d   1       4.341  87.837 112.610  0.00  0.00     0.028 C 
ATOM     12  C   LIG d   1       5.771  88.297 112.935  0.00  0.00     0.006 C 
ENDBRANCH   8  11
ENDBRANCH   7   8
ENDBRANCH   1   7
BRANCH   6  13
ATOM     13  N   LIG d   1       0.616  84.472 112.612  0.00  0.00    -0.311 N 
ATOM     14  C   LIG d   1      -0.393  85.314 112.832  0.00  0.00     0.210 C 
ATOM     15  C   LIG d   1      -0.918  85.332 114.271  0.00  0.00     0.109 C 
ATOM     16  O   LIG d   1      -0.925  86.023 111.965  0.00  0.00    -0.276 OA
ATOM     17  H   LIG d   1       0.963  83.912 113.365  0.00  0.00     0.149 HD
ENDBRANCH   6  13
BRANCH   5  18
ATOM     18  N   LIG d   1      -0.415  82.711 110.338  0.00  0.00     0.381 N 
ATOM     19  H   LIG d   1      -0.857  82.223 111.092  0.00  0.00    -0.090 HD
ATOM     20  H   LIG d   1      -0.479  82.141 109.513  0.00  0.00    -0.090 HD
ATOM     21  H   LIG d   1      -0.871  83.583 110.185  0.00  0.00    -0.090 HD
ENDBRANCH   5  18
BRANCH   3  22
ATOM     22  C   LIG d   1       4.063  82.527 108.649  0.00  0.00     0.382 C 
ATOM     23  O   LIG d   1       5.273  82.854 108.686  0.00  0.00    -0.241 OA
ATOM     24  O   LIG d   1       3.682  81.676 107.822  0.00  0.00    -0.241 OA
ENDBRANCH   3  22
TORSDOF 7
ENDMDL
MODEL 7
REMARK VINA RESULT:      -6.1      2.146      5.616
REMARK  7 active torsions:
REMARK  status: ('A' for Active; 'I' for Inactive)
REMARK    1  A    between atoms: C_2  and  C_3 
REMARK    2  A    between atoms: C_3  and  O_6 
REMARK    3  A    between atoms: C_3  and  C_4 
REMARK    4  A    between atoms: C_7  and  O_6 
REMARK    5  A    between atoms: C_9  and  C_10 
REMARK    6  A    between atoms: N_15  and  C_14 
REMARK    7  A    between atoms: N_20  and  C_19 
REMARK       I    between atoms: C_22  and  N_20 
ROOT
ATOM      1  C   LIG d   1       1.707  82.600 110.775  0.00  0.00     0.161 C 
ATOM      2  C   LIG d   1       2.375  83.833 110.684  0.00  0.00     0.016 C 
ATOM      3  C   LIG d   1       1.941  85.004 111.347  0.00  0.00     0.038 C 
ATOM      4  C   LIG d   1       0.888  84.984 112.274  0.00  0.00     0.028 C 
ATOM      5  C   LIG d   1      -0.127  83.877 112.013  0.00  0.00    -0.047 C 
ATOM      6  C   LIG d   1       0.622  82.532 111.870  0.00  0.00     0.091 C 
ENDROOT
BRANCH   1   7
ATOM      7  O   LIG d   1       2.665  81.538 110.953  0.00  0.00    -0.368 OA
BRANCH   7   8
ATOM      8  C   LIG d   1       2.788  80.600 109.856  0.00  0.00     0.119 C 
BRANCH   8   9
ATOM      9  C   LIG d   1       4.206  80.753 109.272  0.00  0.00     0.028 C 
ATOM     10  C   LIG d   1       4.262  81.781 108.130  0.00  0.00     0.006 C 
ENDBRANCH   8   9
BRANCH   8  11
ATOM     11  C   LIG d   1       1.837  80.956 108.709  0.00  0.00     0.028 C 
ATOM     12  C   LIG d   1       0.815  79.845 108.416  0.00  0.00     0.006 C 
ENDBRANCH   8  11
ENDBRANCH   7   8
ENDBRANCH   1   7
BRANCH   6  13
ATOM     13  N   LIG d   1      -0.290  81.409 111.530  0.00  0.00    -0.311 N 
ATOM     14  C   LIG d   1      -0.812  80.587 112.439  0.00  0.00     0.210 C 
ATOM     15  C   LIG d   1      -1.711  79.484 111.873  0.00  0.00     0.109 C 
ATOM     16  O   LIG d   1      -0.641  80.687 113.663  0.00  0.00    -0.276 OA
ATOM     17  H   LIG d   1      -0.507  81.275 110.562  0.00  0.00     0.149 HD
ENDBRANCH   6  13
BRANCH   5  18
ATOM     18  N   LIG d   1      -1.092  83.885 113.130  0.00  0.00     0.381 N 
ATOM     19  H   LIG d   1      -1.728  83.119 113.033  0.00  0.00    -0.090 HD
ATOM     20  H   LIG d   1      -1.619  84.740 113.097  0.00  0.00    -0.090 HD
ATOM     21  H   LIG d   1      -0.608  83.817 113.998  0.00  0.00    -0.090 HD
ENDBRANCH   5  18
BRANCH   3  22
ATOM     22  C   LIG d   1       2.538  86.220 111.054  0.00  0.00     0.382 C 
ATOM     23  O   LIG d   1       3.775  86.365 111.207  0.00  0.00    -0.241 OA
ATOM     24  O   LIG d   1       1.849  87.188 110.681  0.00  0.00    -0.241 OA
ENDBRANCH   3  22
TORSDOF 7
ENDMDL
MODEL 8
REMARK VINA RESULT:      -6.0      2.231      5.421
REMARK  7 active torsions:
REMARK  status: ('A' for Active; 'I' for Inactive)
REMARK    1  A    between atoms: C_2  and  C_3 
REMARK    2  A    between atoms: C_3  and  O_6 
REMARK    3  A    between atoms: C_3  and  C_4 
REMARK    4  A    between atoms: C_7  and  O_6 
REMARK    5  A    between atoms: C_9  and  C_10 
REMARK    6  A    between atoms: N_15  and  C_14 
REMARK    7  A    between atoms: N_20  and  C_19 
REMARK       I    between atoms: C_22  and  N_20 
ROOT
ATOM      1  C   LIG d   1       1.496  83.161 110.414  0.00  0.00     0.161 C 
ATOM      2  C   LIG d   1       2.127  84.416 110.454  0.00  0.00     0.016 C 
ATOM      3  C   LIG d   1       1.879  85.380 111.458  0.00  0.00     0.038 C 
ATOM      4  C   LIG d   1       1.091  85.093 112.582  0.00  0.00     0.028 C 
ATOM      5  C   LIG d   1       0.036  84.022 112.325  0.00  0.00    -0.047 C 
ATOM      6  C   LIG d   1       0.717  82.788 111.692  0.00  0.00     0.091 C 
ENDROOT
BRANCH   1   7
ATOM      7  O   LIG d   1       2.462  82.138 110.099  0.00  0.00    -0.368 OA
BRANCH   7   8
ATOM      8  C   LIG d   1       2.424  81.620 108.747  0.00  0.00     0.119 C 
BRANCH   8   9
ATOM      9  C   LIG d   1       2.068  80.123 108.834  0.00  0.00     0.028 C 
ATOM     10  C   LIG d   1       0.625  79.836 108.390  0.00  0.00     0.006 C 
ENDBRANCH   8   9
BRANCH   8  11
ATOM     11  C   LIG d   1       3.807  81.671 108.091  0.00  0.00     0.028 C 
ATOM     12  C   LIG d   1       4.840  82.430 108.938  0.00  0.00     0.006 C 
ENDBRANCH   8  11
ENDBRANCH   7   8
ENDBRANCH   1   7
BRANCH   6  13
ATOM     13  N   LIG d   1      -0.257  81.725 111.331  0.00  0.00    -0.311 N 
ATOM     14  C   LIG d   1      -0.605  80.739 112.156  0.00  0.00     0.210 C 
ATOM     15  C   LIG d   1      -1.610  79.738 111.578  0.00  0.00     0.109 C 
ATOM     16  O   LIG d   1      -0.202  80.616 113.322  0.00  0.00    -0.276 OA
ATOM     17  H   LIG d   1      -0.657  81.766 110.414  0.00  0.00     0.149 HD
ENDBRANCH   6  13
BRANCH   5  18
ATOM     18  N   LIG d   1      -0.620  83.724 113.613  0.00  0.00     0.381 N 
ATOM     19  H   LIG d   1      -0.798  84.576 114.107  0.00  0.00    -0.090 HD
ATOM     20  H   LIG d   1      -0.002  83.160 114.169  0.00  0.00    -0.090 HD
ATOM     21  H   LIG d   1      -1.475  83.238 113.455  0.00  0.00    -0.090 HD
ENDBRANCH   5  18
BRANCH   3  22
ATOM     22  C   LIG d   1       2.392  86.661 111.322  0.00  0.00     0.382 C 
ATOM     23  O   LIG d   1       1.621  87.623 111.090  0.00  0.00    -0.241 OA
ATOM     24  O   LIG d   1       3.620  86.860 111.385  0.00  0.00    -0.241 OA
ENDBRANCH   3  22
TORSDOF 7
ENDMDL
MODEL 9
REMARK VINA RESULT:      -5.9      3.557      6.550
REMARK  7 active torsions:
REMARK  status: ('A' for Active; 'I' for Inactive)
REMARK    1  A    between atoms: C_2  and  C_3 
REMARK    2  A    between atoms: C_3  and  O_6 
REMARK    3  A    between atoms: C_3  and  C_4 
REMARK    4  A    between atoms: C_7  and  O_6 
REMARK    5  A    between atoms: C_9  and  C_10 
REMARK    6  A    between atoms: N_15  and  C_14 
REMARK    7  A    between atoms: N_20  and  C_19 
REMARK       I    between atoms: C_22  and  N_20 
ROOT
ATOM      1  C   LIG d   1       3.151  85.154 111.881  0.00  0.00     0.161 C 
ATOM      2  C   LIG d   1       3.852  86.371 111.849  0.00  0.00     0.016 C 
ATOM      3  C   LIG d   1       3.904  87.268 112.941  0.00  0.00     0.038 C 
ATOM      4  C   LIG d   1       3.379  86.937 114.199  0.00  0.00     0.028 C 
ATOM      5  C   LIG d   1       2.228  85.940 114.131  0.00  0.00    -0.047 C 
ATOM      6  C   LIG d   1       2.665  84.725 113.282  0.00  0.00     0.091 C 
ENDROOT
BRANCH   1   7
ATOM      7  O   LIG d   1       3.951  84.113 111.287  0.00  0.00    -0.368 OA
BRANCH   7   8
ATOM      8  C   LIG d   1       3.807  83.937 109.856  0.00  0.00     0.119 C 
BRANCH   8   9
ATOM      9  C   LIG d   1       2.420  83.316 109.603  0.00  0.00     0.028 C 
ATOM     10  C   LIG d   1       1.455  84.296 108.915  0.00  0.00     0.006 C 
ENDBRANCH   8   9
BRANCH   8  11
ATOM     11  C   LIG d   1       4.813  82.916 109.317  0.00  0.00     0.028 C 
ATOM     12  C   LIG d   1       4.190  81.944 108.303  0.00  0.00     0.006 C 
ENDBRANCH   8  11
ENDBRANCH   7   8
ENDBRANCH   1   7
BRANCH   6  13
ATOM     13  N   LIG d   1       1.568  83.740 113.094  0.00  0.00    -0.311 N 
ATOM     14  C   LIG d   1       1.421  82.653 113.851  0.00  0.00     0.210 C 
ATOM     15  C   LIG d   1       0.235  81.760 113.476  0.00  0.00     0.109 C 
ATOM     16  O   LIG d   1       2.142  82.362 114.818  0.00  0.00    -0.276 OA
ATOM     17  H   LIG d   1       0.919  83.915 112.352  0.00  0.00     0.149 HD
ENDBRANCH   6  13
BRANCH   5  18
ATOM     18  N   LIG d   1       1.869  85.579 115.515  0.00  0.00     0.381 N 
ATOM     19  H   LIG d   1       1.615  84.612 115.558  0.00  0.00    -0.090 HD
ATOM     20  H   LIG d   1       1.075  86.126 115.799  0.00  0.00    -0.090 HD
ATOM     21  H   LIG d   1       2.637  85.756 116.124  0.00  0.00    -0.090 HD
ENDBRANCH   5  18
BRANCH   3  22
ATOM     22  C   LIG d   1       4.452  88.530 112.767  0.00  0.00     0.382 C 
ATOM     23  O   LIG d   1       5.673  88.653 112.505  0.00  0.00    -0.241 OA
ATOM     24  O   LIG d   1       3.751  89.549 112.913  0.00  0.00    -0.241 OA
ENDBRANCH   3  22
TORSDOF 7
ENDMDL
