MODEL 1
REMARK VINA RESULT:      -5.2      0.000      0.000
REMARK  7 active torsions:
REMARK  status: ('A' for Active; 'I' for Inactive)
REMARK    1  A    between atoms: C_2  and  C_3 
REMARK    2  A    between atoms: C_3  and  O_6 
REMARK    3  A    between atoms: C_3  and  C_4 
REMARK    4  A    between atoms: C_7  and  O_6 
REMARK    5  A    between atoms: C_9  and  C_10 
REMARK    6  A    between atoms: N_15  and  C_14 
REMARK    7  A    between atoms: N_20  and  C_19 
REMARK       I    between atoms: C_22  and  N_20 
ROOT
ATOM      1  C   LIG d   1      -2.128  75.128 114.884  0.00  0.00     0.161 C 
ATOM      2  C   LIG d   1      -1.956  74.104 115.830  0.00  0.00     0.016 C 
ATOM      3  C   LIG d   1      -1.137  74.232 116.975  0.00  0.00     0.038 C 
ATOM      4  C   LIG d   1      -0.548  75.454 117.333  0.00  0.00     0.028 C 
ATOM      5  C   LIG d   1      -0.284  76.370 116.143  0.00  0.00    -0.047 C 
ATOM      6  C   LIG d   1      -1.582  76.506 115.315  0.00  0.00     0.091 C 
ENDROOT
BRANCH   1   7
ATOM      7  O   LIG d   1      -3.519  75.232 114.522  0.00  0.00    -0.368 OA
BRANCH   7   8
ATOM      8  C   LIG d   1      -4.472  74.809 115.528  0.00  0.00     0.119 C 
BRANCH   8   9
ATOM      9  C   LIG d   1      -5.641  74.120 114.798  0.00  0.00     0.028 C 
ATOM     10  C   LIG d   1      -6.304  73.027 115.653  0.00  0.00     0.006 C 
ENDBRANCH   8   9
BRANCH   8  11
ATOM     11  C   LIG d   1      -5.094  76.011 116.245  0.00  0.00     0.028 C 
ATOM     12  C   LIG d   1      -4.699  76.090 117.728  0.00  0.00     0.006 C 
ENDBRANCH   8  11
ENDBRANCH   7   8
ENDBRANCH   1   7
BRANCH   6  13
ATOM     13  N   LIG d   1      -1.388  77.318 114.086  0.00  0.00    -0.311 N 
ATOM     14  C   LIG d   1      -2.133  78.381 113.785  0.00  0.00     0.210 C 
ATOM     15  C   LIG d   1      -1.779  79.064 112.460  0.00  0.00     0.109 C 
ATOM     16  O   LIG d   1      -3.031  78.842 114.505  0.00  0.00    -0.276 OA
ATOM     17  H   LIG d   1      -0.660  77.033 113.461  0.00  0.00     0.149 HD
ENDBRANCH   6  13
BRANCH   5  18
ATOM     18  N   LIG d   1       0.202  77.659 116.673  0.00  0.00     0.381 N 
ATOM     19  H   LIG d   1      -0.142  78.409 116.106  0.00  0.00    -0.090 HD
ATOM     20  H   LIG d   1       1.206  77.669 116.634  0.00  0.00    -0.090 HD
ATOM     21  H   LIG d   1      -0.103  77.777 117.614  0.00  0.00    -0.090 HD
ENDBRANCH   5  18
BRANCH   3  22
ATOM     22  C   LIG d   1      -0.867  73.117 117.755  0.00  0.00     0.382 C 
ATOM     23  O   LIG d   1      -0.242  72.146 117.265  0.00  0.00    -0.241 OA
ATOM     24  O   LIG d   1      -1.280  73.052 118.928  0.00  0.00    -0.241 OA
ENDBRANCH   3  22
TORSDOF 7
ENDMDL
MODEL 2
REMARK VINA RESULT:      -5.1      3.815      5.802
REMARK  7 active torsions:
REMARK  status: ('A' for Active; 'I' for Inactive)
REMARK    1  A    between atoms: C_2  and  C_3 
REMARK    2  A    between atoms: C_3  and  O_6 
REMARK    3  A    between atoms: C_3  and  C_4 
REMARK    4  A    between atoms: C_7  and  O_6 
REMARK    5  A    between atoms: C_9  and  C_10 
REMARK    6  A    between atoms: N_15  and  C_14 
REMARK    7  A    between atoms: N_20  and  C_19 
REMARK       I    between atoms: C_22  and  N_20 
ROOT
ATOM      1  C   LIG d   1      -6.076  76.623 116.698  0.00  0.00     0.161 C 
ATOM      2  C   LIG d   1      -7.431  76.295 116.867  0.00  0.00     0.016 C 
ATOM      3  C   LIG d   1      -8.333  77.078 117.623  0.00  0.00     0.038 C 
ATOM      4  C   LIG d   1      -7.973  78.331 118.140  0.00  0.00     0.028 C 
ATOM      5  C   LIG d   1      -6.481  78.465 118.422  0.00  0.00    -0.047 C 
ATOM      6  C   LIG d   1      -5.692  78.044 117.161  0.00  0.00     0.091 C 
ENDROOT
BRANCH   1   7
ATOM      7  O   LIG d   1      -5.693  76.425 115.322  0.00  0.00    -0.368 OA
BRANCH   7   8
ATOM      8  C   LIG d   1      -4.790  75.321 115.065  0.00  0.00     0.119 C 
BRANCH   8   9
ATOM      9  C   LIG d   1      -5.596  74.224 114.342  0.00  0.00     0.028 C 
ATOM     10  C   LIG d   1      -6.137  73.158 115.310  0.00  0.00     0.006 C 
ENDBRANCH   8   9
BRANCH   8  11
ATOM     11  C   LIG d   1      -4.310  74.678 116.370  0.00  0.00     0.028 C 
ATOM     12  C   LIG d   1      -2.779  74.671 116.502  0.00  0.00     0.006 C 
ENDBRANCH   8  11
ENDBRANCH   7   8
ENDBRANCH   1   7
BRANCH   6  13
ATOM     13  N   LIG d   1      -4.222  78.065 117.379  0.00  0.00    -0.311 N 
ATOM     14  C   LIG d   1      -3.367  78.663 116.552  0.00  0.00     0.210 C 
ATOM     15  C   LIG d   1      -1.892  78.548 116.952  0.00  0.00     0.109 C 
ATOM     16  O   LIG d   1      -3.692  79.306 115.542  0.00  0.00    -0.276 OA
ATOM     17  H   LIG d   1      -3.875  77.594 118.191  0.00  0.00     0.149 HD
ENDBRANCH   6  13
BRANCH   5  18
ATOM     18  N   LIG d   1      -6.226  79.861 118.825  0.00  0.00     0.381 N 
ATOM     19  H   LIG d   1      -5.404  79.905 119.392  0.00  0.00    -0.090 HD
ATOM     20  H   LIG d   1      -7.004  80.189 119.370  0.00  0.00    -0.090 HD
ATOM     21  H   LIG d   1      -6.113  80.433 118.017  0.00  0.00    -0.090 HD
ENDBRANCH   5  18
BRANCH   3  22
ATOM     22  C   LIG d   1      -9.600  76.589 117.903  0.00  0.00     0.382 C 
ATOM     23  O   LIG d   1     -10.437  77.316 118.490  0.00  0.00    -0.241 OA
ATOM     24  O   LIG d   1      -9.902  75.415 117.615  0.00  0.00    -0.241 OA
ENDBRANCH   3  22
TORSDOF 7
ENDMDL
MODEL 3
REMARK VINA RESULT:      -5.0     11.394     14.245
REMARK  7 active torsions:
REMARK  status: ('A' for Active; 'I' for Inactive)
REMARK    1  A    between atoms: C_2  and  C_3 
REMARK    2  A    between atoms: C_3  and  O_6 
REMARK    3  A    between atoms: C_3  and  C_4 
REMARK    4  A    between atoms: C_7  and  O_6 
REMARK    5  A    between atoms: C_9  and  C_10 
REMARK    6  A    between atoms: N_15  and  C_14 
REMARK    7  A    between atoms: N_20  and  C_19 
REMARK       I    between atoms: C_22  and  N_20 
ROOT
ATOM      1  C   LIG d   1       2.736  88.224 115.441  0.00  0.00     0.161 C 
ATOM      2  C   LIG d   1       2.794  89.435 116.150  0.00  0.00     0.016 C 
ATOM      3  C   LIG d   1       3.826  90.387 115.982  0.00  0.00     0.038 C 
ATOM      4  C   LIG d   1       4.796  90.259 114.976  0.00  0.00     0.028 C 
ATOM      5  C   LIG d   1       5.067  88.812 114.576  0.00  0.00    -0.047 C 
ATOM      6  C   LIG d   1       3.723  88.118 114.260  0.00  0.00     0.091 C 
ENDROOT
BRANCH   1   7
ATOM      7  O   LIG d   1       1.387  87.987 114.990  0.00  0.00    -0.368 OA
BRANCH   7   8
ATOM      8  C   LIG d   1       0.643  86.975 115.711  0.00  0.00     0.119 C 
BRANCH   8   9
ATOM      9  C   LIG d   1       1.646  86.197 116.584  0.00  0.00     0.028 C 
ATOM     10  C   LIG d   1       0.977  85.547 117.808  0.00  0.00     0.006 C 
ENDBRANCH   8   9
BRANCH   8  11
ATOM     11  C   LIG d   1       0.045  85.937 114.756  0.00  0.00     0.028 C 
ATOM     12  C   LIG d   1      -1.449  85.682 115.012  0.00  0.00     0.006 C 
ENDBRANCH   8  11
ENDBRANCH   7   8
ENDBRANCH   1   7
BRANCH   6  13
ATOM     13  N   LIG d   1       3.891  86.676 113.942  0.00  0.00    -0.311 N 
ATOM     14  C   LIG d   1       3.405  86.107 112.840  0.00  0.00     0.210 C 
ATOM     15  C   LIG d   1       3.673  84.604 112.716  0.00  0.00     0.109 C 
ATOM     16  O   LIG d   1       2.805  86.711 111.938  0.00  0.00    -0.276 OA
ATOM     17  H   LIG d   1       4.392  86.118 114.605  0.00  0.00     0.149 HD
ENDBRANCH   6  13
BRANCH   5  18
ATOM     18  N   LIG d   1       5.992  88.833 113.428  0.00  0.00     0.381 N 
ATOM     19  H   LIG d   1       6.869  88.429 113.691  0.00  0.00    -0.090 HD
ATOM     20  H   LIG d   1       6.153  89.787 113.157  0.00  0.00    -0.090 HD
ATOM     21  H   LIG d   1       5.600  88.326 112.665  0.00  0.00    -0.090 HD
ENDBRANCH   5  18
BRANCH   3  22
ATOM     22  C   LIG d   1       3.919  91.462 116.853  0.00  0.00     0.382 C 
ATOM     23  O   LIG d   1       3.188  92.468 116.687  0.00  0.00    -0.241 OA
ATOM     24  O   LIG d   1       4.755  91.457 117.776  0.00  0.00    -0.241 OA
ENDBRANCH   3  22
TORSDOF 7
ENDMDL
MODEL 4
REMARK VINA RESULT:      -4.9      2.171      3.318
REMARK  7 active torsions:
REMARK  status: ('A' for Active; 'I' for Inactive)
REMARK    1  A    between atoms: C_2  and  C_3 
REMARK    2  A    between atoms: C_3  and  O_6 
REMARK    3  A    between atoms: C_3  and  C_4 
REMARK    4  A    between atoms: C_7  and  O_6 
REMARK    5  A    between atoms: C_9  and  C_10 
REMARK    6  A    between atoms: N_15  and  C_14 
REMARK    7  A    between atoms: N_20  and  C_19 
REMARK       I    between atoms: C_22  and  N_20 
ROOT
ATOM      1  C   LIG d   1      -1.319  74.440 115.167  0.00  0.00     0.161 C 
ATOM      2  C   LIG d   1      -1.843  74.242 116.456  0.00  0.00     0.016 C 
ATOM      3  C   LIG d   1      -1.105  74.473 117.640  0.00  0.00     0.038 C 
ATOM      4  C   LIG d   1       0.166  75.066 117.618  0.00  0.00     0.028 C 
ATOM      5  C   LIG d   1       0.930  74.813 116.322  0.00  0.00    -0.047 C 
ATOM      6  C   LIG d   1       0.028  75.192 115.125  0.00  0.00     0.091 C 
ENDROOT
BRANCH   1   7
ATOM      7  O   LIG d   1      -2.292  75.109 114.342  0.00  0.00    -0.368 OA
BRANCH   7   8
ATOM      8  C   LIG d   1      -3.313  75.862 115.042  0.00  0.00     0.119 C 
BRANCH   8   9
ATOM      9  C   LIG d   1      -4.639  75.661 114.284  0.00  0.00     0.028 C 
ATOM     10  C   LIG d   1      -5.297  74.308 114.601  0.00  0.00     0.006 C 
ENDBRANCH   8   9
BRANCH   8  11
ATOM     11  C   LIG d   1      -3.035  77.367 114.982  0.00  0.00     0.028 C 
ATOM     12  C   LIG d   1      -2.351  77.795 113.675  0.00  0.00     0.006 C 
ENDBRANCH   8  11
ENDBRANCH   7   8
ENDBRANCH   1   7
BRANCH   6  13
ATOM     13  N   LIG d   1       0.668  74.896 113.817  0.00  0.00    -0.311 N 
ATOM     14  C   LIG d   1       0.967  73.664 113.409  0.00  0.00     0.210 C 
ATOM     15  C   LIG d   1       1.641  73.583 112.036  0.00  0.00     0.109 C 
ATOM     16  O   LIG d   1       0.708  72.628 114.040  0.00  0.00    -0.276 OA
ATOM     17  H   LIG d   1       0.884  75.677 113.228  0.00  0.00     0.149 HD
ENDBRANCH   6  13
BRANCH   5  18
ATOM     18  N   LIG d   1       2.176  75.600 116.379  0.00  0.00     0.381 N 
ATOM     19  H   LIG d   1       2.908  75.110 115.903  0.00  0.00    -0.090 HD
ATOM     20  H   LIG d   1       2.446  75.713 117.340  0.00  0.00    -0.090 HD
ATOM     21  H   LIG d   1       2.036  76.492 115.958  0.00  0.00    -0.090 HD
ENDBRANCH   5  18
BRANCH   3  22
ATOM     22  C   LIG d   1      -1.624  74.072 118.861  0.00  0.00     0.382 C 
ATOM     23  O   LIG d   1      -2.388  74.836 119.499  0.00  0.00    -0.241 OA
ATOM     24  O   LIG d   1      -1.302  72.974 119.355  0.00  0.00    -0.241 OA
ENDBRANCH   3  22
TORSDOF 7
ENDMDL
MODEL 5
REMARK VINA RESULT:      -4.9      1.931      4.980
REMARK  7 active torsions:
REMARK  status: ('A' for Active; 'I' for Inactive)
REMARK    1  A    between atoms: C_2  and  C_3 
REMARK    2  A    between atoms: C_3  and  O_6 
REMARK    3  A    between atoms: C_3  and  C_4 
REMARK    4  A    between atoms: C_7  and  O_6 
REMARK    5  A    between atoms: C_9  and  C_10 
REMARK    6  A    between atoms: N_15  and  C_14 
REMARK    7  A    between atoms: N_20  and  C_19 
REMARK       I    between atoms: C_22  and  N_20 
ROOT
ATOM      1  C   LIG d   1      -3.395  75.968 116.679  0.00  0.00     0.161 C 
ATOM      2  C   LIG d   1      -3.463  76.671 115.465  0.00  0.00     0.016 C 
ATOM      3  C   LIG d   1      -2.400  76.719 114.533  0.00  0.00     0.038 C 
ATOM      4  C   LIG d   1      -1.246  75.937 114.685  0.00  0.00     0.028 C 
ATOM      5  C   LIG d   1      -0.924  75.607 116.139  0.00  0.00    -0.047 C 
ATOM      6  C   LIG d   1      -2.186  75.019 116.811  0.00  0.00     0.091 C 
ENDROOT
BRANCH   1   7
ATOM      7  O   LIG d   1      -4.624  75.247 116.895  0.00  0.00    -0.368 OA
BRANCH   7   8
ATOM      8  C   LIG d   1      -5.645  75.409 115.880  0.00  0.00     0.119 C 
BRANCH   8   9
ATOM      9  C   LIG d   1      -6.975  75.697 116.604  0.00  0.00     0.028 C 
ATOM     10  C   LIG d   1      -7.063  77.145 117.116  0.00  0.00     0.006 C 
ENDBRANCH   8   9
BRANCH   8  11
ATOM     11  C   LIG d   1      -5.877  74.106 115.109  0.00  0.00     0.028 C 
ATOM     12  C   LIG d   1      -5.287  74.140 113.690  0.00  0.00     0.006 C 
ENDBRANCH   8  11
ENDBRANCH   7   8
ENDBRANCH   1   7
BRANCH   6  13
ATOM     13  N   LIG d   1      -1.983  74.746 118.257  0.00  0.00    -0.311 N 
ATOM     14  C   LIG d   1      -1.653  73.549 118.739  0.00  0.00     0.210 C 
ATOM     15  C   LIG d   1      -1.512  73.481 120.263  0.00  0.00     0.109 C 
ATOM     16  O   LIG d   1      -1.433  72.544 118.046  0.00  0.00    -0.276 OA
ATOM     17  H   LIG d   1      -2.111  75.513 118.888  0.00  0.00     0.149 HD
ENDBRANCH   6  13
BRANCH   5  18
ATOM     18  N   LIG d   1       0.220  74.676 116.142  0.00  0.00     0.381 N 
ATOM     19  H   LIG d   1       0.523  74.508 115.203  0.00  0.00    -0.090 HD
ATOM     20  H   LIG d   1      -0.074  73.801 116.539  0.00  0.00    -0.090 HD
ATOM     21  H   LIG d   1       0.969  75.058 116.677  0.00  0.00    -0.090 HD
ENDBRANCH   5  18
BRANCH   3  22
ATOM     22  C   LIG d   1      -2.471  77.587 113.455  0.00  0.00     0.382 C 
ATOM     23  O   LIG d   1      -1.774  78.631 113.443  0.00  0.00    -0.241 OA
ATOM     24  O   LIG d   1      -3.256  77.363 112.514  0.00  0.00    -0.241 OA
ENDBRANCH   3  22
TORSDOF 7
ENDMDL
MODEL 6
REMARK VINA RESULT:      -4.8      2.942      4.873
REMARK  7 active torsions:
REMARK  status: ('A' for Active; 'I' for Inactive)
REMARK    1  A    between atoms: C_2  and  C_3 
REMARK    2  A    between atoms: C_3  and  O_6 
REMARK    3  A    between atoms: C_3  and  C_4 
REMARK    4  A    between atoms: C_7  and  O_6 
REMARK    5  A    between atoms: C_9  and  C_10 
REMARK    6  A    between atoms: N_15  and  C_14 
REMARK    7  A    between atoms: N_20  and  C_19 
REMARK       I    between atoms: C_22  and  N_20 
ROOT
ATOM      1  C   LIG d   1      -0.750  75.652 115.292  0.00  0.00     0.161 C 
ATOM      2  C   LIG d   1      -0.061  75.206 114.152  0.00  0.00     0.016 C 
ATOM      3  C   LIG d   1       0.449  73.895 114.014  0.00  0.00     0.038 C 
ATOM      4  C   LIG d   1       0.172  72.889 114.951  0.00  0.00     0.028 C 
ATOM      5  C   LIG d   1      -0.089  73.424 116.355  0.00  0.00    -0.047 C 
ATOM      6  C   LIG d   1      -1.159  74.537 116.277  0.00  0.00     0.091 C 
ENDROOT
BRANCH   1   7
ATOM      7  O   LIG d   1      -1.904  76.420 114.897  0.00  0.00    -0.368 OA
BRANCH   7   8
ATOM      8  C   LIG d   1      -1.636  77.718 114.312  0.00  0.00     0.119 C 
BRANCH   8   9
ATOM      9  C   LIG d   1      -2.122  78.785 115.312  0.00  0.00     0.028 C 
ATOM     10  C   LIG d   1      -3.412  78.366 116.037  0.00  0.00     0.006 C 
ENDBRANCH   8   9
BRANCH   8  11
ATOM     11  C   LIG d   1      -2.468  77.940 113.045  0.00  0.00     0.028 C 
ATOM     12  C   LIG d   1      -2.085  79.229 112.300  0.00  0.00     0.006 C 
ENDBRANCH   8  11
ENDBRANCH   7   8
ENDBRANCH   1   7
BRANCH   6  13
ATOM     13  N   LIG d   1      -1.412  75.173 117.597  0.00  0.00    -0.311 N 
ATOM     14  C   LIG d   1      -2.633  75.399 118.079  0.00  0.00     0.210 C 
ATOM     15  C   LIG d   1      -2.670  76.083 119.449  0.00  0.00     0.109 C 
ATOM     16  O   LIG d   1      -3.688  75.068 117.517  0.00  0.00    -0.276 OA
ATOM     17  H   LIG d   1      -0.612  75.445 118.133  0.00  0.00     0.149 HD
ENDBRANCH   6  13
BRANCH   5  18
ATOM     18  N   LIG d   1      -0.499  72.285 117.197  0.00  0.00     0.381 N 
ATOM     19  H   LIG d   1      -1.217  72.574 117.832  0.00  0.00    -0.090 HD
ATOM     20  H   LIG d   1       0.292  71.976 117.735  0.00  0.00    -0.090 HD
ATOM     21  H   LIG d   1      -0.832  71.540 116.625  0.00  0.00    -0.090 HD
ENDBRANCH   5  18
BRANCH   3  22
ATOM     22  C   LIG d   1       1.281  73.590 112.947  0.00  0.00     0.382 C 
ATOM     23  O   LIG d   1       1.448  74.423 112.024  0.00  0.00    -0.241 OA
ATOM     24  O   LIG d   1       1.832  72.475 112.874  0.00  0.00    -0.241 OA
ENDBRANCH   3  22
TORSDOF 7
ENDMDL
MODEL 7
REMARK VINA RESULT:      -4.7      4.691      6.718
REMARK  7 active torsions:
REMARK  status: ('A' for Active; 'I' for Inactive)
REMARK    1  A    between atoms: C_2  and  C_3 
REMARK    2  A    between atoms: C_3  and  O_6 
REMARK    3  A    between atoms: C_3  and  C_4 
REMARK    4  A    between atoms: C_7  and  O_6 
REMARK    5  A    between atoms: C_9  and  C_10 
REMARK    6  A    between atoms: N_15  and  C_14 
REMARK    7  A    between atoms: N_20  and  C_19 
REMARK       I    between atoms: C_22  and  N_20 
ROOT
ATOM      1  C   LIG d   1      -6.543  76.909 117.346  0.00  0.00     0.161 C 
ATOM      2  C   LIG d   1      -7.247  75.693 117.325  0.00  0.00     0.016 C 
ATOM      3  C   LIG d   1      -8.603  75.572 117.709  0.00  0.00     0.038 C 
ATOM      4  C   LIG d   1      -9.394  76.694 117.998  0.00  0.00     0.028 C 
ATOM      5  C   LIG d   1      -8.593  77.882 118.520  0.00  0.00    -0.047 C 
ATOM      6  C   LIG d   1      -7.421  78.161 117.552  0.00  0.00     0.091 C 
ENDROOT
BRANCH   1   7
ATOM      7  O   LIG d   1      -5.758  77.039 116.144  0.00  0.00    -0.368 OA
BRANCH   7   8
ATOM      8  C   LIG d   1      -4.623  76.147 116.024  0.00  0.00     0.119 C 
BRANCH   8   9
ATOM      9  C   LIG d   1      -3.358  77.020 115.918  0.00  0.00     0.028 C 
ATOM     10  C   LIG d   1      -3.631  78.494 116.260  0.00  0.00     0.006 C 
ENDBRANCH   8   9
BRANCH   8  11
ATOM     11  C   LIG d   1      -4.676  75.351 114.717  0.00  0.00     0.028 C 
ATOM     12  C   LIG d   1      -6.027  75.479 113.995  0.00  0.00     0.006 C 
ENDBRANCH   8  11
ENDBRANCH   7   8
ENDBRANCH   1   7
BRANCH   6  13
ATOM     13  N   LIG d   1      -6.537  79.255 118.032  0.00  0.00    -0.311 N 
ATOM     14  C   LIG d   1      -6.711  80.535 117.706  0.00  0.00     0.210 C 
ATOM     15  C   LIG d   1      -5.675  81.499 118.293  0.00  0.00     0.109 C 
ATOM     16  O   LIG d   1      -7.644  80.967 117.013  0.00  0.00    -0.276 OA
ATOM     17  H   LIG d   1      -5.773  78.997 118.625  0.00  0.00     0.149 HD
ENDBRANCH   6  13
BRANCH   5  18
ATOM     18  N   LIG d   1      -9.520  79.022 118.649  0.00  0.00     0.381 N 
ATOM     19  H   LIG d   1     -10.394  78.708 119.021  0.00  0.00    -0.090 HD
ATOM     20  H   LIG d   1      -9.687  79.410 117.737  0.00  0.00    -0.090 HD
ATOM     21  H   LIG d   1      -9.127  79.716 119.246  0.00  0.00    -0.090 HD
ENDBRANCH   5  18
BRANCH   3  22
ATOM     22  C   LIG d   1      -9.169  74.314 117.845  0.00  0.00     0.382 C 
ATOM     23  O   LIG d   1      -8.441  73.323 118.094  0.00  0.00    -0.241 OA
ATOM     24  O   LIG d   1     -10.392  74.150 117.679  0.00  0.00    -0.241 OA
ENDBRANCH   3  22
TORSDOF 7
ENDMDL
MODEL 8
REMARK VINA RESULT:      -4.7     15.346     18.522
REMARK  7 active torsions:
REMARK  status: ('A' for Active; 'I' for Inactive)
REMARK    1  A    between atoms: C_2  and  C_3 
REMARK    2  A    between atoms: C_3  and  O_6 
REMARK    3  A    between atoms: C_3  and  C_4 
REMARK    4  A    between atoms: C_7  and  O_6 
REMARK    5  A    between atoms: C_9  and  C_10 
REMARK    6  A    between atoms: N_15  and  C_14 
REMARK    7  A    between atoms: N_20  and  C_19 
REMARK       I    between atoms: C_22  and  N_20 
ROOT
ATOM      1  C   LIG d   1     -16.725  64.806 114.413  0.00  0.00     0.161 C 
ATOM      2  C   LIG d   1     -16.259  65.786 113.521  0.00  0.00     0.016 C 
ATOM      3  C   LIG d   1     -15.523  66.923 113.928  0.00  0.00     0.038 C 
ATOM      4  C   LIG d   1     -15.070  67.079 115.247  0.00  0.00     0.028 C 
ATOM      5  C   LIG d   1     -15.946  66.372 116.276  0.00  0.00    -0.047 C 
ATOM      6  C   LIG d   1     -16.146  64.903 115.840  0.00  0.00     0.091 C 
ENDROOT
BRANCH   1   7
ATOM      7  O   LIG d   1     -16.490  63.494 113.864  0.00  0.00    -0.368 OA
BRANCH   7   8
ATOM      8  C   LIG d   1     -17.651  62.807 113.336  0.00  0.00     0.119 C 
BRANCH   8   9
ATOM      9  C   LIG d   1     -18.900  63.477 113.939  0.00  0.00     0.028 C 
ATOM     10  C   LIG d   1     -19.933  63.865 112.868  0.00  0.00     0.006 C 
ENDBRANCH   8   9
BRANCH   8  11
ATOM     11  C   LIG d   1     -17.701  61.352 113.812  0.00  0.00     0.028 C 
ATOM     12  C   LIG d   1     -18.651  60.483 112.973  0.00  0.00     0.006 C 
ENDBRANCH   8  11
ENDBRANCH   7   8
ENDBRANCH   1   7
BRANCH   6  13
ATOM     13  N   LIG d   1     -17.060  64.161 116.747  0.00  0.00    -0.311 N 
ATOM     14  C   LIG d   1     -16.639  63.458 117.798  0.00  0.00     0.210 C 
ATOM     15  C   LIG d   1     -17.745  62.754 118.589  0.00  0.00     0.109 C 
ATOM     16  O   LIG d   1     -15.458  63.378 118.167  0.00  0.00    -0.276 OA
ATOM     17  H   LIG d   1     -18.039  64.199 116.539  0.00  0.00     0.149 HD
ENDBRANCH   6  13
BRANCH   5  18
ATOM     18  N   LIG d   1     -15.285  66.501 117.588  0.00  0.00     0.381 N 
ATOM     19  H   LIG d   1     -15.943  66.823 118.269  0.00  0.00    -0.090 HD
ATOM     20  H   LIG d   1     -14.548  67.181 117.515  0.00  0.00    -0.090 HD
ATOM     21  H   LIG d   1     -14.909  65.622 117.868  0.00  0.00    -0.090 HD
ENDBRANCH   5  18
BRANCH   3  22
ATOM     22  C   LIG d   1     -15.267  67.938 113.019  0.00  0.00     0.382 C 
ATOM     23  O   LIG d   1     -14.454  68.848 113.309  0.00  0.00    -0.241 OA
ATOM     24  O   LIG d   1     -15.872  67.978 111.931  0.00  0.00    -0.241 OA
ENDBRANCH   3  22
TORSDOF 7
ENDMDL
MODEL 9
REMARK VINA RESULT:      -4.7      2.874      4.662
REMARK  7 active torsions:
REMARK  status: ('A' for Active; 'I' for Inactive)
REMARK    1  A    between atoms: C_2  and  C_3 
REMARK    2  A    between atoms: C_3  and  O_6 
REMARK    3  A    between atoms: C_3  and  C_4 
REMARK    4  A    between atoms: C_7  and  O_6 
REMARK    5  A    between atoms: C_9  and  C_10 
REMARK    6  A    between atoms: N_15  and  C_14 
REMARK    7  A    between atoms: N_20  and  C_19 
REMARK       I    between atoms: C_22  and  N_20 
ROOT
ATOM      1  C   LIG d   1      -2.171  74.579 116.425  0.00  0.00     0.161 C 
ATOM      2  C   LIG d   1      -1.620  74.221 115.183  0.00  0.00     0.016 C 
ATOM      3  C   LIG d   1      -0.348  73.621 115.039  0.00  0.00     0.038 C 
ATOM      4  C   LIG d   1       0.400  73.196 116.147  0.00  0.00     0.028 C 
ATOM      5  C   LIG d   1       0.111  73.992 117.415  0.00  0.00    -0.047 C 
ATOM      6  C   LIG d   1      -1.417  74.022 117.651  0.00  0.00     0.091 C 
ENDROOT
BRANCH   1   7
ATOM      7  O   LIG d   1      -3.559  74.194 116.473  0.00  0.00    -0.368 OA
BRANCH   7   8
ATOM      8  C   LIG d   1      -4.518  75.225 116.135  0.00  0.00     0.119 C 
BRANCH   8   9
ATOM      9  C   LIG d   1      -5.190  75.680 117.445  0.00  0.00     0.028 C 
ATOM     10  C   LIG d   1      -4.612  77.004 117.973  0.00  0.00     0.006 C 
ENDBRANCH   8   9
BRANCH   8  11
ATOM     11  C   LIG d   1      -5.653  74.669 115.269  0.00  0.00     0.028 C 
ATOM     12  C   LIG d   1      -5.211  74.373 113.827  0.00  0.00     0.006 C 
ENDBRANCH   8  11
ENDBRANCH   7   8
ENDBRANCH   1   7
BRANCH   6  13
ATOM     13  N   LIG d   1      -1.793  74.852 118.825  0.00  0.00    -0.311 N 
ATOM     14  C   LIG d   1      -1.876  74.372 120.065  0.00  0.00     0.210 C 
ATOM     15  C   LIG d   1      -2.300  75.393 121.126  0.00  0.00     0.109 C 
ATOM     16  O   LIG d   1      -1.607  73.207 120.392  0.00  0.00    -0.276 OA
ATOM     17  H   LIG d   1      -1.998  75.817 118.655  0.00  0.00     0.149 HD
ENDBRANCH   6  13
BRANCH   5  18
ATOM     18  N   LIG d   1       0.853  73.356 118.520  0.00  0.00     0.381 N 
ATOM     19  H   LIG d   1       0.960  74.005 119.274  0.00  0.00    -0.090 HD
ATOM     20  H   LIG d   1       1.768  73.101 118.192  0.00  0.00    -0.090 HD
ATOM     21  H   LIG d   1       0.368  72.546 118.835  0.00  0.00    -0.090 HD
ENDBRANCH   5  18
BRANCH   3  22
ATOM     22  C   LIG d   1       0.205  73.476 113.776  0.00  0.00     0.382 C 
ATOM     23  O   LIG d   1       0.266  74.461 113.002  0.00  0.00    -0.241 OA
ATOM     24  O   LIG d   1       0.603  72.362 113.385  0.00  0.00    -0.241 OA
ENDBRANCH   3  22
TORSDOF 7
ENDMDL
