MODEL 1
REMARK VINA RESULT:      -5.8      0.000      0.000
REMARK  7 active torsions:
REMARK  status: ('A' for Active; 'I' for Inactive)
REMARK    1  A    between atoms: C_2  and  C_3 
REMARK    2  A    between atoms: C_3  and  O_6 
REMARK    3  A    between atoms: C_3  and  C_4 
REMARK    4  A    between atoms: C_7  and  O_6 
REMARK    5  A    between atoms: C_9  and  C_10 
REMARK    6  A    between atoms: N_15  and  C_14 
REMARK    7  A    between atoms: N_20  and  C_19 
REMARK       I    between atoms: C_22  and  N_20 
ROOT
ATOM      1  C   LIG d   1      -7.966  75.208 118.132  0.00  0.00     0.161 C 
ATOM      2  C   LIG d   1      -9.216  75.732 118.504  0.00  0.00     0.016 C 
ATOM      3  C   LIG d   1      -9.484  77.118 118.591  0.00  0.00     0.038 C 
ATOM      4  C   LIG d   1      -8.557  78.080 118.164  0.00  0.00     0.028 C 
ATOM      5  C   LIG d   1      -7.109  77.612 118.259  0.00  0.00    -0.047 C 
ATOM      6  C   LIG d   1      -6.977  76.242 117.555  0.00  0.00     0.091 C 
ENDROOT
BRANCH   1   7
ATOM      7  O   LIG d   1      -8.150  74.119 117.206  0.00  0.00    -0.368 OA
BRANCH   7   8
ATOM      8  C   LIG d   1      -8.284  72.800 117.792  0.00  0.00     0.119 C 
BRANCH   8   9
ATOM      9  C   LIG d   1      -7.397  71.839 116.976  0.00  0.00     0.028 C 
ATOM     10  C   LIG d   1      -6.418  72.584 116.053  0.00  0.00     0.006 C 
ENDBRANCH   8   9
BRANCH   8  11
ATOM     11  C   LIG d   1      -9.710  72.265 117.639  0.00  0.00     0.028 C 
ATOM     12  C   LIG d   1      -9.756  70.743 117.431  0.00  0.00     0.006 C 
ENDBRANCH   8  11
ENDBRANCH   7   8
ENDBRANCH   1   7
BRANCH   6  13
ATOM     13  N   LIG d   1      -5.610  75.673 117.675  0.00  0.00    -0.311 N 
ATOM     14  C   LIG d   1      -4.661  75.845 116.757  0.00  0.00     0.210 C 
ATOM     15  C   LIG d   1      -3.328  75.156 117.067  0.00  0.00     0.109 C 
ATOM     16  O   LIG d   1      -4.785  76.531 115.731  0.00  0.00    -0.276 OA
ATOM     17  H   LIG d   1      -5.413  75.128 118.492  0.00  0.00     0.149 HD
ENDBRANCH   6  13
BRANCH   5  18
ATOM     18  N   LIG d   1      -6.262  78.657 117.654  0.00  0.00     0.381 N 
ATOM     19  H   LIG d   1      -5.435  78.782 118.203  0.00  0.00    -0.090 HD
ATOM     20  H   LIG d   1      -6.770  79.524 117.647  0.00  0.00    -0.090 HD
ATOM     21  H   LIG d   1      -6.016  78.400 116.723  0.00  0.00    -0.090 HD
ENDBRANCH   5  18
BRANCH   3  22
ATOM     22  C   LIG d   1     -10.676  77.553 119.149  0.00  0.00     0.382 C 
ATOM     23  O   LIG d   1     -10.708  78.623 119.805  0.00  0.00    -0.241 OA
ATOM     24  O   LIG d   1     -11.711  76.868 119.043  0.00  0.00    -0.241 OA
ENDBRANCH   3  22
TORSDOF 7
ENDMDL
MODEL 2
REMARK VINA RESULT:      -5.6     12.457     15.427
REMARK  7 active torsions:
REMARK  status: ('A' for Active; 'I' for Inactive)
REMARK    1  A    between atoms: C_2  and  C_3 
REMARK    2  A    between atoms: C_3  and  O_6 
REMARK    3  A    between atoms: C_3  and  C_4 
REMARK    4  A    between atoms: C_7  and  O_6 
REMARK    5  A    between atoms: C_9  and  C_10 
REMARK    6  A    between atoms: N_15  and  C_14 
REMARK    7  A    between atoms: N_20  and  C_19 
REMARK       I    between atoms: C_22  and  N_20 
ROOT
ATOM      1  C   LIG d   1       1.271  85.642 113.900  0.00  0.00     0.161 C 
ATOM      2  C   LIG d   1       1.658  86.768 113.154  0.00  0.00     0.016 C 
ATOM      3  C   LIG d   1       2.877  87.455 113.358  0.00  0.00     0.038 C 
ATOM      4  C   LIG d   1       3.866  86.968 114.225  0.00  0.00     0.028 C 
ATOM      5  C   LIG d   1       3.309  86.121 115.364  0.00  0.00    -0.047 C 
ATOM      6  C   LIG d   1       2.386  85.031 114.774  0.00  0.00     0.091 C 
ENDROOT
BRANCH   1   7
ATOM      7  O   LIG d   1       0.717  84.642 113.023  0.00  0.00    -0.368 OA
BRANCH   7   8
ATOM      8  C   LIG d   1       0.938  84.844 111.605  0.00  0.00     0.119 C 
BRANCH   8   9
ATOM      9  C   LIG d   1      -0.414  84.648 110.893  0.00  0.00     0.028 C 
ATOM     10  C   LIG d   1      -0.903  85.930 110.199  0.00  0.00     0.006 C 
ENDBRANCH   8   9
BRANCH   8  11
ATOM     11  C   LIG d   1       1.861  83.767 111.026  0.00  0.00     0.028 C 
ATOM     12  C   LIG d   1       2.953  84.347 110.113  0.00  0.00     0.006 C 
ENDBRANCH   8  11
ENDBRANCH   7   8
ENDBRANCH   1   7
BRANCH   6  13
ATOM     13  N   LIG d   1       1.733  84.210 115.827  0.00  0.00    -0.311 N 
ATOM     14  C   LIG d   1       2.214  83.042 116.250  0.00  0.00     0.210 C 
ATOM     15  C   LIG d   1       1.375  82.349 117.328  0.00  0.00     0.109 C 
ATOM     16  O   LIG d   1       3.272  82.529 115.857  0.00  0.00    -0.276 OA
ATOM     17  H   LIG d   1       0.885  84.566 116.223  0.00  0.00     0.149 HD
ENDBRANCH   6  13
BRANCH   5  18
ATOM     18  N   LIG d   1       4.456  85.566 116.109  0.00  0.00     0.381 N 
ATOM     19  H   LIG d   1       5.201  86.233 116.130  0.00  0.00    -0.090 HD
ATOM     20  H   LIG d   1       4.783  84.743 115.635  0.00  0.00    -0.090 HD
ATOM     21  H   LIG d   1       4.180  85.336 117.038  0.00  0.00    -0.090 HD
ENDBRANCH   5  18
BRANCH   3  22
ATOM     22  C   LIG d   1       3.099  88.665 112.718  0.00  0.00     0.382 C 
ATOM     23  O   LIG d   1       4.272  89.065 112.523  0.00  0.00    -0.241 OA
ATOM     24  O   LIG d   1       2.141  89.382 112.373  0.00  0.00    -0.241 OA
ENDBRANCH   3  22
TORSDOF 7
ENDMDL
MODEL 3
REMARK VINA RESULT:      -5.6      2.345      4.656
REMARK  7 active torsions:
REMARK  status: ('A' for Active; 'I' for Inactive)
REMARK    1  A    between atoms: C_2  and  C_3 
REMARK    2  A    between atoms: C_3  and  O_6 
REMARK    3  A    between atoms: C_3  and  C_4 
REMARK    4  A    between atoms: C_7  and  O_6 
REMARK    5  A    between atoms: C_9  and  C_10 
REMARK    6  A    between atoms: N_15  and  C_14 
REMARK    7  A    between atoms: N_20  and  C_19 
REMARK       I    between atoms: C_22  and  N_20 
ROOT
ATOM      1  C   LIG d   1      -7.296  74.882 118.000  0.00  0.00     0.161 C 
ATOM      2  C   LIG d   1      -7.675  73.603 117.563  0.00  0.00     0.016 C 
ATOM      3  C   LIG d   1      -9.022  73.195 117.425  0.00  0.00     0.038 C 
ATOM      4  C   LIG d   1     -10.088  74.096 117.571  0.00  0.00     0.028 C 
ATOM      5  C   LIG d   1      -9.772  75.261 118.502  0.00  0.00    -0.047 C 
ATOM      6  C   LIG d   1      -8.443  75.913 118.058  0.00  0.00     0.091 C 
ENDROOT
BRANCH   1   7
ATOM      7  O   LIG d   1      -6.217  75.378 117.182  0.00  0.00    -0.368 OA
BRANCH   7   8
ATOM      8  C   LIG d   1      -5.547  74.400 116.349  0.00  0.00     0.119 C 
BRANCH   8   9
ATOM      9  C   LIG d   1      -4.050  74.432 116.712  0.00  0.00     0.028 C 
ATOM     10  C   LIG d   1      -3.184  75.006 115.578  0.00  0.00     0.006 C 
ENDBRANCH   8   9
BRANCH   8  11
ATOM     11  C   LIG d   1      -5.614  74.788 114.869  0.00  0.00     0.028 C 
ATOM     12  C   LIG d   1      -6.705  75.831 114.576  0.00  0.00     0.006 C 
ENDBRANCH   8  11
ENDBRANCH   7   8
ENDBRANCH   1   7
BRANCH   6  13
ATOM     13  N   LIG d   1      -8.017  77.009 118.966  0.00  0.00    -0.311 N 
ATOM     14  C   LIG d   1      -7.510  78.163 118.535  0.00  0.00     0.210 C 
ATOM     15  C   LIG d   1      -7.117  79.149 119.640  0.00  0.00     0.109 C 
ATOM     16  O   LIG d   1      -7.377  78.476 117.343  0.00  0.00    -0.276 OA
ATOM     17  H   LIG d   1      -8.119  76.852 119.950  0.00  0.00     0.149 HD
ENDBRANCH   6  13
BRANCH   5  18
ATOM     18  N   LIG d   1     -10.916  76.192 118.455  0.00  0.00     0.381 N 
ATOM     19  H   LIG d   1     -11.127  76.421 117.504  0.00  0.00    -0.090 HD
ATOM     20  H   LIG d   1     -10.667  77.038 118.936  0.00  0.00    -0.090 HD
ATOM     21  H   LIG d   1     -11.711  75.777 118.889  0.00  0.00    -0.090 HD
ENDBRANCH   5  18
BRANCH   3  22
ATOM     22  C   LIG d   1      -9.315  71.863 117.175  0.00  0.00     0.382 C 
ATOM     23  O   LIG d   1      -8.741  71.260 116.237  0.00  0.00    -0.241 OA
ATOM     24  O   LIG d   1     -10.178  71.269 117.849  0.00  0.00    -0.241 OA
ENDBRANCH   3  22
TORSDOF 7
ENDMDL
MODEL 4
REMARK VINA RESULT:      -5.5      2.436      6.009
REMARK  7 active torsions:
REMARK  status: ('A' for Active; 'I' for Inactive)
REMARK    1  A    between atoms: C_2  and  C_3 
REMARK    2  A    between atoms: C_3  and  O_6 
REMARK    3  A    between atoms: C_3  and  C_4 
REMARK    4  A    between atoms: C_7  and  O_6 
REMARK    5  A    between atoms: C_9  and  C_10 
REMARK    6  A    between atoms: N_15  and  C_14 
REMARK    7  A    between atoms: N_20  and  C_19 
REMARK       I    between atoms: C_22  and  N_20 
ROOT
ATOM      1  C   LIG d   1      -6.996  74.955 117.108  0.00  0.00     0.161 C 
ATOM      2  C   LIG d   1      -5.937  75.662 116.514  0.00  0.00     0.016 C 
ATOM      3  C   LIG d   1      -5.048  75.088 115.576  0.00  0.00     0.038 C 
ATOM      4  C   LIG d   1      -5.253  73.804 115.050  0.00  0.00     0.028 C 
ATOM      5  C   LIG d   1      -6.013  72.877 115.993  0.00  0.00    -0.047 C 
ATOM      6  C   LIG d   1      -7.303  73.587 116.463  0.00  0.00     0.091 C 
ENDROOT
BRANCH   1   7
ATOM      7  O   LIG d   1      -8.180  75.777 117.127  0.00  0.00    -0.368 OA
BRANCH   7   8
ATOM      8  C   LIG d   1      -8.708  76.104 118.436  0.00  0.00     0.119 C 
BRANCH   8   9
ATOM      9  C   LIG d   1     -10.107  75.467 118.544  0.00  0.00     0.028 C 
ATOM     10  C   LIG d   1     -10.708  75.134 117.168  0.00  0.00     0.006 C 
ENDBRANCH   8   9
BRANCH   8  11
ATOM     11  C   LIG d   1      -8.937  77.612 118.583  0.00  0.00     0.028 C 
ATOM     12  C   LIG d   1      -7.697  78.441 118.212  0.00  0.00     0.006 C 
ENDBRANCH   8  11
ENDBRANCH   7   8
ENDBRANCH   1   7
BRANCH   6  13
ATOM     13  N   LIG d   1      -8.063  72.783 117.455  0.00  0.00    -0.311 N 
ATOM     14  C   LIG d   1      -8.979  71.878 117.117  0.00  0.00     0.210 C 
ATOM     15  C   LIG d   1      -9.660  71.175 118.296  0.00  0.00     0.109 C 
ATOM     16  O   LIG d   1      -9.270  71.567 115.952  0.00  0.00    -0.276 OA
ATOM     17  H   LIG d   1      -7.867  72.949 118.423  0.00  0.00     0.149 HD
ENDBRANCH   6  13
BRANCH   5  18
ATOM     18  N   LIG d   1      -6.276  71.620 115.267  0.00  0.00     0.381 N 
ATOM     19  H   LIG d   1      -5.970  71.707 114.318  0.00  0.00    -0.090 HD
ATOM     20  H   LIG d   1      -7.266  71.448 115.264  0.00  0.00    -0.090 HD
ATOM     21  H   LIG d   1      -5.801  70.865 115.710  0.00  0.00    -0.090 HD
ENDBRANCH   5  18
BRANCH   3  22
ATOM     22  C   LIG d   1      -3.917  75.788 115.183  0.00  0.00     0.382 C 
ATOM     23  O   LIG d   1      -3.101  76.194 116.045  0.00  0.00    -0.241 OA
ATOM     24  O   LIG d   1      -3.725  76.056 113.982  0.00  0.00    -0.241 OA
ENDBRANCH   3  22
TORSDOF 7
ENDMDL
MODEL 5
REMARK VINA RESULT:      -5.5     13.567     16.007
REMARK  7 active torsions:
REMARK  status: ('A' for Active; 'I' for Inactive)
REMARK    1  A    between atoms: C_2  and  C_3 
REMARK    2  A    between atoms: C_3  and  O_6 
REMARK    3  A    between atoms: C_3  and  C_4 
REMARK    4  A    between atoms: C_7  and  O_6 
REMARK    5  A    between atoms: C_9  and  C_10 
REMARK    6  A    between atoms: N_15  and  C_14 
REMARK    7  A    between atoms: N_20  and  C_19 
REMARK       I    between atoms: C_22  and  N_20 
ROOT
ATOM      1  C   LIG d   1       3.483  85.251 112.368  0.00  0.00     0.161 C 
ATOM      2  C   LIG d   1       3.496  86.584 112.813  0.00  0.00     0.016 C 
ATOM      3  C   LIG d   1       2.737  87.613 112.211  0.00  0.00     0.038 C 
ATOM      4  C   LIG d   1       1.791  87.348 111.209  0.00  0.00     0.028 C 
ATOM      5  C   LIG d   1       2.111  86.104 110.387  0.00  0.00    -0.047 C 
ATOM      6  C   LIG d   1       2.373  84.921 111.348  0.00  0.00     0.091 C 
ENDROOT
BRANCH   1   7
ATOM      7  O   LIG d   1       3.406  84.359 113.497  0.00  0.00    -0.368 OA
BRANCH   7   8
ATOM      8  C   LIG d   1       3.145  84.978 114.781  0.00  0.00     0.119 C 
BRANCH   8   9
ATOM      9  C   LIG d   1       4.308  84.605 115.720  0.00  0.00     0.028 C 
ATOM     10  C   LIG d   1       4.915  85.833 116.420  0.00  0.00     0.006 C 
ENDBRANCH   8   9
BRANCH   8  11
ATOM     11  C   LIG d   1       1.891  84.392 115.437  0.00  0.00     0.028 C 
ATOM     12  C   LIG d   1       2.206  83.237 116.401  0.00  0.00     0.006 C 
ENDBRANCH   8  11
ENDBRANCH   7   8
ENDBRANCH   1   7
BRANCH   6  13
ATOM     13  N   LIG d   1       2.776  83.685 110.629  0.00  0.00    -0.311 N 
ATOM     14  C   LIG d   1       1.913  82.749 110.239  0.00  0.00     0.210 C 
ATOM     15  C   LIG d   1       2.541  81.545 109.530  0.00  0.00     0.109 C 
ATOM     16  O   LIG d   1       0.683  82.816 110.385  0.00  0.00    -0.276 OA
ATOM     17  H   LIG d   1       3.752  83.564 110.441  0.00  0.00     0.149 HD
ENDBRANCH   6  13
BRANCH   5  18
ATOM     18  N   LIG d   1       0.977  85.868 109.475  0.00  0.00     0.381 N 
ATOM     19  H   LIG d   1       1.309  85.481 108.614  0.00  0.00    -0.090 HD
ATOM     20  H   LIG d   1       0.532  86.747 109.275  0.00  0.00    -0.090 HD
ATOM     21  H   LIG d   1       0.323  85.246 109.897  0.00  0.00    -0.090 HD
ENDBRANCH   5  18
BRANCH   3  22
ATOM     22  C   LIG d   1       2.950  88.932 112.582  0.00  0.00     0.382 C 
ATOM     23  O   LIG d   1       4.119  89.381 112.658  0.00  0.00    -0.241 OA
ATOM     24  O   LIG d   1       1.991  89.666 112.886  0.00  0.00    -0.241 OA
ENDBRANCH   3  22
TORSDOF 7
ENDMDL
MODEL 6
REMARK VINA RESULT:      -5.3      2.074      4.868
REMARK  7 active torsions:
REMARK  status: ('A' for Active; 'I' for Inactive)
REMARK    1  A    between atoms: C_2  and  C_3 
REMARK    2  A    between atoms: C_3  and  O_6 
REMARK    3  A    between atoms: C_3  and  C_4 
REMARK    4  A    between atoms: C_7  and  O_6 
REMARK    5  A    between atoms: C_9  and  C_10 
REMARK    6  A    between atoms: N_15  and  C_14 
REMARK    7  A    between atoms: N_20  and  C_19 
REMARK       I    between atoms: C_22  and  N_20 
ROOT
ATOM      1  C   LIG d   1      -7.115  75.395 117.504  0.00  0.00     0.161 C 
ATOM      2  C   LIG d   1      -6.340  74.859 116.462  0.00  0.00     0.016 C 
ATOM      3  C   LIG d   1      -4.953  75.092 116.324  0.00  0.00     0.038 C 
ATOM      4  C   LIG d   1      -4.211  75.758 117.311  0.00  0.00     0.028 C 
ATOM      5  C   LIG d   1      -5.038  76.748 118.124  0.00  0.00    -0.047 C 
ATOM      6  C   LIG d   1      -6.303  76.033 118.651  0.00  0.00     0.091 C 
ENDROOT
BRANCH   1   7
ATOM      7  O   LIG d   1      -8.005  74.386 118.021  0.00  0.00    -0.368 OA
BRANCH   7   8
ATOM      8  C   LIG d   1      -9.124  74.029 117.173  0.00  0.00     0.119 C 
BRANCH   8   9
ATOM      9  C   LIG d   1     -10.154  75.172 117.259  0.00  0.00     0.028 C 
ATOM     10  C   LIG d   1     -10.487  75.553 118.711  0.00  0.00     0.006 C 
ENDBRANCH   8   9
BRANCH   8  11
ATOM     11  C   LIG d   1      -9.850  72.788 117.702  0.00  0.00     0.028 C 
ATOM     12  C   LIG d   1      -9.640  71.551 116.815  0.00  0.00     0.006 C 
ENDBRANCH   8  11
ENDBRANCH   7   8
ENDBRANCH   1   7
BRANCH   6  13
ATOM     13  N   LIG d   1      -7.209  76.952 119.387  0.00  0.00    -0.311 N 
ATOM     14  C   LIG d   1      -7.683  78.084 118.870  0.00  0.00     0.210 C 
ATOM     15  C   LIG d   1      -8.585  78.895 119.805  0.00  0.00     0.109 C 
ATOM     16  O   LIG d   1      -7.467  78.478 117.713  0.00  0.00    -0.276 OA
ATOM     17  H   LIG d   1      -7.461  76.694 120.321  0.00  0.00     0.149 HD
ENDBRANCH   6  13
BRANCH   5  18
ATOM     18  N   LIG d   1      -4.176  77.268 119.203  0.00  0.00     0.381 N 
ATOM     19  H   LIG d   1      -4.314  78.253 119.302  0.00  0.00    -0.090 HD
ATOM     20  H   LIG d   1      -3.215  77.107 118.958  0.00  0.00    -0.090 HD
ATOM     21  H   LIG d   1      -4.389  76.807 120.061  0.00  0.00    -0.090 HD
ENDBRANCH   5  18
BRANCH   3  22
ATOM     22  C   LIG d   1      -4.300  74.690 115.169  0.00  0.00     0.382 C 
ATOM     23  O   LIG d   1      -4.941  74.123 114.251  0.00  0.00    -0.241 OA
ATOM     24  O   LIG d   1      -3.070  74.847 115.051  0.00  0.00    -0.241 OA
ENDBRANCH   3  22
TORSDOF 7
ENDMDL
MODEL 7
REMARK VINA RESULT:      -5.2      7.061      9.729
REMARK  7 active torsions:
REMARK  status: ('A' for Active; 'I' for Inactive)
REMARK    1  A    between atoms: C_2  and  C_3 
REMARK    2  A    between atoms: C_3  and  O_6 
REMARK    3  A    between atoms: C_3  and  C_4 
REMARK    4  A    between atoms: C_7  and  O_6 
REMARK    5  A    between atoms: C_9  and  C_10 
REMARK    6  A    between atoms: N_15  and  C_14 
REMARK    7  A    between atoms: N_20  and  C_19 
REMARK       I    between atoms: C_22  and  N_20 
ROOT
ATOM      1  C   LIG d   1      -1.448  79.808 114.131  0.00  0.00     0.161 C 
ATOM      2  C   LIG d   1      -2.177  78.654 114.464  0.00  0.00     0.016 C 
ATOM      3  C   LIG d   1      -2.533  77.660 113.524  0.00  0.00     0.038 C 
ATOM      4  C   LIG d   1      -2.050  77.678 112.207  0.00  0.00     0.028 C 
ATOM      5  C   LIG d   1      -1.732  79.080 111.698  0.00  0.00    -0.047 C 
ATOM      6  C   LIG d   1      -0.818  79.790 112.723  0.00  0.00     0.091 C 
ENDROOT
BRANCH   1   7
ATOM      7  O   LIG d   1      -0.438  80.052 115.130  0.00  0.00    -0.368 OA
BRANCH   7   8
ATOM      8  C   LIG d   1      -0.566  79.303 116.363  0.00  0.00     0.119 C 
BRANCH   8   9
ATOM      9  C   LIG d   1      -0.895  80.309 117.483  0.00  0.00     0.028 C 
ATOM     10  C   LIG d   1      -2.262  80.036 118.134  0.00  0.00     0.006 C 
ENDBRANCH   8   9
BRANCH   8  11
ATOM     11  C   LIG d   1       0.767  78.666 116.769  0.00  0.00     0.028 C 
ATOM     12  C   LIG d   1       1.466  79.422 117.910  0.00  0.00     0.006 C 
ENDBRANCH   8  11
ENDBRANCH   7   8
ENDBRANCH   1   7
BRANCH   6  13
ATOM     13  N   LIG d   1      -0.527  81.197 112.343  0.00  0.00    -0.311 N 
ATOM     14  C   LIG d   1       0.690  81.633 112.021  0.00  0.00     0.210 C 
ATOM     15  C   LIG d   1       0.774  83.124 111.680  0.00  0.00     0.109 C 
ATOM     16  O   LIG d   1       1.702  80.919 111.954  0.00  0.00    -0.276 OA
ATOM     17  H   LIG d   1      -1.296  81.838 112.341  0.00  0.00     0.149 HD
ENDBRANCH   6  13
BRANCH   5  18
ATOM     18  N   LIG d   1      -1.110  78.940 110.368  0.00  0.00     0.381 N 
ATOM     19  H   LIG d   1      -0.125  79.101 110.436  0.00  0.00    -0.090 HD
ATOM     20  H   LIG d   1      -1.500  79.632 109.753  0.00  0.00    -0.090 HD
ATOM     21  H   LIG d   1      -1.280  78.028 110.006  0.00  0.00    -0.090 HD
ENDBRANCH   5  18
BRANCH   3  22
ATOM     22  C   LIG d   1      -3.414  76.653 113.889  0.00  0.00     0.382 C 
ATOM     23  O   LIG d   1      -4.628  76.742 113.587  0.00  0.00    -0.241 OA
ATOM     24  O   LIG d   1      -3.017  75.677 114.555  0.00  0.00    -0.241 OA
ENDBRANCH   3  22
TORSDOF 7
ENDMDL
MODEL 8
REMARK VINA RESULT:      -5.2      4.809      6.594
REMARK  7 active torsions:
REMARK  status: ('A' for Active; 'I' for Inactive)
REMARK    1  A    between atoms: C_2  and  C_3 
REMARK    2  A    between atoms: C_3  and  O_6 
REMARK    3  A    between atoms: C_3  and  C_4 
REMARK    4  A    between atoms: C_7  and  O_6 
REMARK    5  A    between atoms: C_9  and  C_10 
REMARK    6  A    between atoms: N_15  and  C_14 
REMARK    7  A    between atoms: N_20  and  C_19 
REMARK       I    between atoms: C_22  and  N_20 
ROOT
ATOM      1  C   LIG d   1      -2.317  75.934 115.005  0.00  0.00     0.161 C 
ATOM      2  C   LIG d   1      -2.272  75.601 116.369  0.00  0.00     0.016 C 
ATOM      3  C   LIG d   1      -1.907  76.518 117.382  0.00  0.00     0.038 C 
ATOM      4  C   LIG d   1      -1.708  77.880 117.112  0.00  0.00     0.028 C 
ATOM      5  C   LIG d   1      -1.250  78.154 115.683  0.00  0.00    -0.047 C 
ATOM      6  C   LIG d   1      -2.211  77.444 114.703  0.00  0.00     0.091 C 
ENDROOT
BRANCH   1   7
ATOM      7  O   LIG d   1      -3.509  75.386 114.408  0.00  0.00    -0.368 OA
BRANCH   7   8
ATOM      8  C   LIG d   1      -4.630  75.175 115.302  0.00  0.00     0.119 C 
BRANCH   8   9
ATOM      9  C   LIG d   1      -5.327  73.870 114.869  0.00  0.00     0.028 C 
ATOM     10  C   LIG d   1      -6.014  73.154 116.044  0.00  0.00     0.006 C 
ENDBRANCH   8   9
BRANCH   8  11
ATOM     11  C   LIG d   1      -5.687  76.271 115.141  0.00  0.00     0.028 C 
ATOM     12  C   LIG d   1      -6.607  76.039 113.933  0.00  0.00     0.006 C 
ENDBRANCH   8  11
ENDBRANCH   7   8
ENDBRANCH   1   7
BRANCH   6  13
ATOM     13  N   LIG d   1      -1.787  77.590 113.287  0.00  0.00    -0.311 N 
ATOM     14  C   LIG d   1      -2.641  77.767 112.280  0.00  0.00     0.210 C 
ATOM     15  C   LIG d   1      -1.995  77.875 110.895  0.00  0.00     0.109 C 
ATOM     16  O   LIG d   1      -3.870  77.875 112.406  0.00  0.00    -0.276 OA
ATOM     17  H   LIG d   1      -0.805  77.545 113.097  0.00  0.00     0.149 HD
ENDBRANCH   6  13
BRANCH   5  18
ATOM     18  N   LIG d   1      -1.214  79.617 115.499  0.00  0.00     0.381 N 
ATOM     19  H   LIG d   1      -1.961  79.901 114.896  0.00  0.00    -0.090 HD
ATOM     20  H   LIG d   1      -0.344  79.869 115.064  0.00  0.00    -0.090 HD
ATOM     21  H   LIG d   1      -1.298  80.074 116.381  0.00  0.00    -0.090 HD
ENDBRANCH   5  18
BRANCH   3  22
ATOM     22  C   LIG d   1      -1.699  76.066 118.676  0.00  0.00     0.382 C 
ATOM     23  O   LIG d   1      -0.546  75.738 119.048  0.00  0.00    -0.241 OA
ATOM     24  O   LIG d   1      -2.656  75.939 119.462  0.00  0.00    -0.241 OA
ENDBRANCH   3  22
TORSDOF 7
ENDMDL
MODEL 9
REMARK VINA RESULT:      -5.2     14.812     17.317
REMARK  7 active torsions:
REMARK  status: ('A' for Active; 'I' for Inactive)
REMARK    1  A    between atoms: C_2  and  C_3 
REMARK    2  A    between atoms: C_3  and  O_6 
REMARK    3  A    between atoms: C_3  and  C_4 
REMARK    4  A    between atoms: C_7  and  O_6 
REMARK    5  A    between atoms: C_9  and  C_10 
REMARK    6  A    between atoms: N_15  and  C_14 
REMARK    7  A    between atoms: N_20  and  C_19 
REMARK       I    between atoms: C_22  and  N_20 
ROOT
ATOM      1  C   LIG d   1       2.245  87.876 114.188  0.00  0.00     0.161 C 
ATOM      2  C   LIG d   1       2.113  87.000 113.097  0.00  0.00     0.016 C 
ATOM      3  C   LIG d   1       3.107  86.838 112.104  0.00  0.00     0.038 C 
ATOM      4  C   LIG d   1       4.372  87.433 112.218  0.00  0.00     0.028 C 
ATOM      5  C   LIG d   1       4.365  88.719 113.037  0.00  0.00    -0.047 C 
ATOM      6  C   LIG d   1       3.663  88.450 114.388  0.00  0.00     0.091 C 
ENDROOT
BRANCH   1   7
ATOM      7  O   LIG d   1       1.792  87.227 115.392  0.00  0.00    -0.368 OA
BRANCH   7   8
ATOM      8  C   LIG d   1       2.740  86.338 116.032  0.00  0.00     0.119 C 
BRANCH   8   9
ATOM      9  C   LIG d   1       2.079  84.949 116.129  0.00  0.00     0.028 C 
ATOM     10  C   LIG d   1       2.668  83.948 115.121  0.00  0.00     0.006 C 
ENDBRANCH   8   9
BRANCH   8  11
ATOM     11  C   LIG d   1       3.010  86.759 117.480  0.00  0.00     0.028 C 
ATOM     12  C   LIG d   1       1.992  87.786 118.001  0.00  0.00     0.006 C 
ENDBRANCH   8  11
ENDBRANCH   7   8
ENDBRANCH   1   7
BRANCH   6  13
ATOM     13  N   LIG d   1       3.538  89.677 115.217  0.00  0.00    -0.311 N 
ATOM     14  C   LIG d   1       4.407  90.009 116.170  0.00  0.00     0.210 C 
ATOM     15  C   LIG d   1       4.081  91.306 116.919  0.00  0.00     0.109 C 
ATOM     16  O   LIG d   1       5.434  89.371 116.445  0.00  0.00    -0.276 OA
ATOM     17  H   LIG d   1       2.751  90.269 115.039  0.00  0.00     0.149 HD
ENDBRANCH   6  13
BRANCH   5  18
ATOM     18  N   LIG d   1       5.765  89.158 113.191  0.00  0.00     0.381 N 
ATOM     19  H   LIG d   1       5.792  90.064 113.613  0.00  0.00    -0.090 HD
ATOM     20  H   LIG d   1       6.187  89.220 112.281  0.00  0.00    -0.090 HD
ATOM     21  H   LIG d   1       6.266  88.506 113.754  0.00  0.00    -0.090 HD
ENDBRANCH   5  18
BRANCH   3  22
ATOM     22  C   LIG d   1       2.824  86.104 110.962  0.00  0.00     0.382 C 
ATOM     23  O   LIG d   1       3.356  84.981 110.791  0.00  0.00    -0.241 OA
ATOM     24  O   LIG d   1       2.079  86.571 110.080  0.00  0.00    -0.241 OA
ENDBRANCH   3  22
TORSDOF 7
ENDMDL
