MODEL 1
REMARK VINA RESULT:      -6.1      0.000      0.000
REMARK  7 active torsions:
REMARK  status: ('A' for Active; 'I' for Inactive)
REMARK    1  A    between atoms: C_2  and  C_3 
REMARK    2  A    between atoms: C_3  and  O_6 
REMARK    3  A    between atoms: C_3  and  C_4 
REMARK    4  A    between atoms: C_7  and  O_6 
REMARK    5  A    between atoms: C_9  and  C_10 
REMARK    6  A    between atoms: N_15  and  C_14 
REMARK    7  A    between atoms: N_20  and  C_19 
REMARK       I    between atoms: C_22  and  N_20 
ROOT
ATOM      1  C   LIG d   1      -7.861  76.063 117.341  0.00  0.00     0.161 C 
ATOM      2  C   LIG d   1      -8.890  76.854 117.880  0.00  0.00     0.016 C 
ATOM      3  C   LIG d   1      -8.766  78.245 118.102  0.00  0.00     0.038 C 
ATOM      4  C   LIG d   1      -7.652  78.971 117.656  0.00  0.00     0.028 C 
ATOM      5  C   LIG d   1      -6.381  78.133 117.564  0.00  0.00    -0.047 C 
ATOM      6  C   LIG d   1      -6.679  76.856 116.746  0.00  0.00     0.091 C 
ENDROOT
BRANCH   1   7
ATOM      7  O   LIG d   1      -8.404  75.160 116.358  0.00  0.00    -0.368 OA
BRANCH   7   8
ATOM      8  C   LIG d   1      -8.371  73.752 116.698  0.00  0.00     0.119 C 
BRANCH   8   9
ATOM      9  C   LIG d   1      -7.334  73.077 115.779  0.00  0.00     0.028 C 
ATOM     10  C   LIG d   1      -7.392  71.543 115.856  0.00  0.00     0.006 C 
ENDBRANCH   8   9
BRANCH   8  11
ATOM     11  C   LIG d   1      -9.703  73.069 116.376  0.00  0.00     0.028 C 
ATOM     12  C   LIG d   1     -10.920  73.912 116.788  0.00  0.00     0.006 C 
ENDBRANCH   8  11
ENDBRANCH   7   8
ENDBRANCH   1   7
BRANCH   6  13
ATOM     13  N   LIG d   1      -5.511  75.940 116.679  0.00  0.00    -0.311 N 
ATOM     14  C   LIG d   1      -4.649  75.925 115.664  0.00  0.00     0.210 C 
ATOM     15  C   LIG d   1      -3.527  74.889 115.784  0.00  0.00     0.109 C 
ATOM     16  O   LIG d   1      -4.688  76.693 114.691  0.00  0.00    -0.276 OA
ATOM     17  H   LIG d   1      -5.385  75.304 117.442  0.00  0.00     0.149 HD
ENDBRANCH   6  13
BRANCH   5  18
ATOM     18  N   LIG d   1      -5.334  78.977 116.957  0.00  0.00     0.381 N 
ATOM     19  H   LIG d   1      -5.257  79.837 117.463  0.00  0.00    -0.090 HD
ATOM     20  H   LIG d   1      -5.597  79.191 116.011  0.00  0.00    -0.090 HD
ATOM     21  H   LIG d   1      -4.461  78.498 116.967  0.00  0.00    -0.090 HD
ENDBRANCH   5  18
BRANCH   3  22
ATOM     22  C   LIG d   1      -9.749  78.917 118.813  0.00  0.00     0.382 C 
ATOM     23  O   LIG d   1     -10.209  79.999 118.376  0.00  0.00    -0.241 OA
ATOM     24  O   LIG d   1     -10.150  78.477 119.907  0.00  0.00    -0.241 OA
ENDBRANCH   3  22
TORSDOF 7
ENDMDL
MODEL 2
REMARK VINA RESULT:      -5.9     13.988     15.844
REMARK  7 active torsions:
REMARK  status: ('A' for Active; 'I' for Inactive)
REMARK    1  A    between atoms: C_2  and  C_3 
REMARK    2  A    between atoms: C_3  and  O_6 
REMARK    3  A    between atoms: C_3  and  C_4 
REMARK    4  A    between atoms: C_7  and  O_6 
REMARK    5  A    between atoms: C_9  and  C_10 
REMARK    6  A    between atoms: N_15  and  C_14 
REMARK    7  A    between atoms: N_20  and  C_19 
REMARK       I    between atoms: C_22  and  N_20 
ROOT
ATOM      1  C   LIG d   1      -4.403  90.599 117.739  0.00  0.00     0.161 C 
ATOM      2  C   LIG d   1      -5.329  89.956 116.900  0.00  0.00     0.016 C 
ATOM      3  C   LIG d   1      -6.526  90.563 116.454  0.00  0.00     0.038 C 
ATOM      4  C   LIG d   1      -6.807  91.915 116.697  0.00  0.00     0.028 C 
ATOM      5  C   LIG d   1      -6.145  92.454 117.961  0.00  0.00    -0.047 C 
ATOM      6  C   LIG d   1      -4.638  92.112 117.923  0.00  0.00     0.091 C 
ENDROOT
BRANCH   1   7
ATOM      7  O   LIG d   1      -3.064  90.354 117.267  0.00  0.00    -0.368 OA
BRANCH   7   8
ATOM      8  C   LIG d   1      -2.349  89.270 117.910  0.00  0.00     0.119 C 
BRANCH   8   9
ATOM      9  C   LIG d   1      -2.876  89.161 119.354  0.00  0.00     0.028 C 
ATOM     10  C   LIG d   1      -1.895  89.746 120.383  0.00  0.00     0.006 C 
ENDBRANCH   8   9
BRANCH   8  11
ATOM     11  C   LIG d   1      -0.857  89.590 118.047  0.00  0.00     0.028 C 
ATOM     12  C   LIG d   1      -0.400  90.712 117.102  0.00  0.00     0.006 C 
ENDBRANCH   8  11
ENDBRANCH   7   8
ENDBRANCH   1   7
BRANCH   6  13
ATOM     13  N   LIG d   1      -3.931  92.530 119.162  0.00  0.00    -0.311 N 
ATOM     14  C   LIG d   1      -2.798  93.229 119.159  0.00  0.00     0.210 C 
ATOM     15  C   LIG d   1      -2.224  93.538 120.545  0.00  0.00     0.109 C 
ATOM     16  O   LIG d   1      -2.229  93.650 118.140  0.00  0.00    -0.276 OA
ATOM     17  H   LIG d   1      -4.340  92.258 120.034  0.00  0.00     0.149 HD
ENDBRANCH   6  13
BRANCH   5  18
ATOM     18  N   LIG d   1      -6.408  93.905 118.017  0.00  0.00     0.381 N 
ATOM     19  H   LIG d   1      -7.354  94.089 117.748  0.00  0.00    -0.090 HD
ATOM     20  H   LIG d   1      -5.799  94.371 117.368  0.00  0.00    -0.090 HD
ATOM     21  H   LIG d   1      -6.245  94.245 118.939  0.00  0.00    -0.090 HD
ENDBRANCH   5  18
BRANCH   3  22
ATOM     22  C   LIG d   1      -7.476  89.801 115.791  0.00  0.00     0.382 C 
ATOM     23  O   LIG d   1      -8.015  90.242 114.747  0.00  0.00    -0.241 OA
ATOM     24  O   LIG d   1      -7.833  88.698 116.247  0.00  0.00    -0.241 OA
ENDBRANCH   3  22
TORSDOF 7
ENDMDL
MODEL 3
REMARK VINA RESULT:      -5.9      2.293      4.725
REMARK  7 active torsions:
REMARK  status: ('A' for Active; 'I' for Inactive)
REMARK    1  A    between atoms: C_2  and  C_3 
REMARK    2  A    between atoms: C_3  and  O_6 
REMARK    3  A    between atoms: C_3  and  C_4 
REMARK    4  A    between atoms: C_7  and  O_6 
REMARK    5  A    between atoms: C_9  and  C_10 
REMARK    6  A    between atoms: N_15  and  C_14 
REMARK    7  A    between atoms: N_20  and  C_19 
REMARK       I    between atoms: C_22  and  N_20 
ROOT
ATOM      1  C   LIG d   1      -7.045  75.609 115.805  0.00  0.00     0.161 C 
ATOM      2  C   LIG d   1      -8.388  75.445 116.181  0.00  0.00     0.016 C 
ATOM      3  C   LIG d   1      -8.942  74.202 116.567  0.00  0.00     0.038 C 
ATOM      4  C   LIG d   1      -8.147  73.061 116.750  0.00  0.00     0.028 C 
ATOM      5  C   LIG d   1      -6.883  73.060 115.897  0.00  0.00    -0.047 C 
ATOM      6  C   LIG d   1      -6.137  74.398 116.104  0.00  0.00     0.091 C 
ENDROOT
BRANCH   1   7
ATOM      7  O   LIG d   1      -6.509  76.800 116.414  0.00  0.00    -0.368 OA
BRANCH   7   8
ATOM      8  C   LIG d   1      -7.180  77.260 117.612  0.00  0.00     0.119 C 
BRANCH   8   9
ATOM      9  C   LIG d   1      -7.133  78.801 117.606  0.00  0.00     0.028 C 
ATOM     10  C   LIG d   1      -8.477  79.430 118.013  0.00  0.00     0.006 C 
ENDBRANCH   8   9
BRANCH   8  11
ATOM     11  C   LIG d   1      -6.422  76.837 118.874  0.00  0.00     0.028 C 
ATOM     12  C   LIG d   1      -7.167  75.766 119.685  0.00  0.00     0.006 C 
ENDBRANCH   8  11
ENDBRANCH   7   8
ENDBRANCH   1   7
BRANCH   6  13
ATOM     13  N   LIG d   1      -4.932  74.514 115.242  0.00  0.00    -0.311 N 
ATOM     14  C   LIG d   1      -3.731  74.859 115.703  0.00  0.00     0.210 C 
ATOM     15  C   LIG d   1      -2.630  74.940 114.641  0.00  0.00     0.109 C 
ATOM     16  O   LIG d   1      -3.466  75.075 116.895  0.00  0.00    -0.276 OA
ATOM     17  H   LIG d   1      -5.050  74.326 114.266  0.00  0.00     0.149 HD
ENDBRANCH   6  13
BRANCH   5  18
ATOM     18  N   LIG d   1      -6.083  71.884 116.287  0.00  0.00     0.381 N 
ATOM     19  H   LIG d   1      -5.413  72.147 116.982  0.00  0.00    -0.090 HD
ATOM     20  H   LIG d   1      -5.586  71.547 115.481  0.00  0.00    -0.090 HD
ATOM     21  H   LIG d   1      -6.678  71.169 116.643  0.00  0.00    -0.090 HD
ENDBRANCH   5  18
BRANCH   3  22
ATOM     22  C   LIG d   1     -10.313  74.084 116.737  0.00  0.00     0.382 C 
ATOM     23  O   LIG d   1     -10.963  75.022 117.259  0.00  0.00    -0.241 OA
ATOM     24  O   LIG d   1     -10.902  73.035 116.415  0.00  0.00    -0.241 OA
ENDBRANCH   3  22
TORSDOF 7
ENDMDL
MODEL 4
REMARK VINA RESULT:      -5.7      1.872      5.225
REMARK  7 active torsions:
REMARK  status: ('A' for Active; 'I' for Inactive)
REMARK    1  A    between atoms: C_2  and  C_3 
REMARK    2  A    between atoms: C_3  and  O_6 
REMARK    3  A    between atoms: C_3  and  C_4 
REMARK    4  A    between atoms: C_7  and  O_6 
REMARK    5  A    between atoms: C_9  and  C_10 
REMARK    6  A    between atoms: N_15  and  C_14 
REMARK    7  A    between atoms: N_20  and  C_19 
REMARK       I    between atoms: C_22  and  N_20 
ROOT
ATOM      1  C   LIG d   1      -6.384  75.206 116.642  0.00  0.00     0.161 C 
ATOM      2  C   LIG d   1      -5.185  74.585 116.254  0.00  0.00     0.016 C 
ATOM      3  C   LIG d   1      -3.906  75.063 116.623  0.00  0.00     0.038 C 
ATOM      4  C   LIG d   1      -3.743  76.115 117.537  0.00  0.00     0.028 C 
ATOM      5  C   LIG d   1      -4.917  77.088 117.556  0.00  0.00    -0.047 C 
ATOM      6  C   LIG d   1      -6.229  76.289 117.730  0.00  0.00     0.091 C 
ENDROOT
BRANCH   1   7
ATOM      7  O   LIG d   1      -7.338  74.209 117.059  0.00  0.00    -0.368 OA
BRANCH   7   8
ATOM      8  C   LIG d   1      -8.388  73.896 116.112  0.00  0.00     0.119 C 
BRANCH   8   9
ATOM      9  C   LIG d   1      -9.684  74.555 116.624  0.00  0.00     0.028 C 
ATOM     10  C   LIG d   1     -10.868  73.574 116.656  0.00  0.00     0.006 C 
ENDBRANCH   8   9
BRANCH   8  11
ATOM     11  C   LIG d   1      -8.682  72.393 116.082  0.00  0.00     0.028 C 
ATOM     12  C   LIG d   1      -7.418  71.544 115.873  0.00  0.00     0.006 C 
ENDBRANCH   8  11
ENDBRANCH   7   8
ENDBRANCH   1   7
BRANCH   6  13
ATOM     13  N   LIG d   1      -7.433  77.158 117.675  0.00  0.00    -0.311 N 
ATOM     14  C   LIG d   1      -8.253  77.342 118.708  0.00  0.00     0.210 C 
ATOM     15  C   LIG d   1      -9.447  78.261 118.432  0.00  0.00     0.109 C 
ATOM     16  O   LIG d   1      -8.087  76.857 119.838  0.00  0.00    -0.276 OA
ATOM     17  H   LIG d   1      -7.626  77.616 116.805  0.00  0.00     0.149 HD
ENDBRANCH   6  13
BRANCH   5  18
ATOM     18  N   LIG d   1      -4.679  78.052 118.647  0.00  0.00     0.381 N 
ATOM     19  H   LIG d   1      -5.522  78.192 119.166  0.00  0.00    -0.090 HD
ATOM     20  H   LIG d   1      -4.404  78.933 118.247  0.00  0.00    -0.090 HD
ATOM     21  H   LIG d   1      -3.961  77.715 119.250  0.00  0.00    -0.090 HD
ENDBRANCH   5  18
BRANCH   3  22
ATOM     22  C   LIG d   1      -2.773  74.511 116.045  0.00  0.00     0.382 C 
ATOM     23  O   LIG d   1      -2.035  73.750 116.714  0.00  0.00    -0.241 OA
ATOM     24  O   LIG d   1      -2.457  74.801 114.875  0.00  0.00    -0.241 OA
ENDBRANCH   3  22
TORSDOF 7
ENDMDL
MODEL 5
REMARK VINA RESULT:      -5.6      2.218      5.054
REMARK  7 active torsions:
REMARK  status: ('A' for Active; 'I' for Inactive)
REMARK    1  A    between atoms: C_2  and  C_3 
REMARK    2  A    between atoms: C_3  and  O_6 
REMARK    3  A    between atoms: C_3  and  C_4 
REMARK    4  A    between atoms: C_7  and  O_6 
REMARK    5  A    between atoms: C_9  and  C_10 
REMARK    6  A    between atoms: N_15  and  C_14 
REMARK    7  A    between atoms: N_20  and  C_19 
REMARK       I    between atoms: C_22  and  N_20 
ROOT
ATOM      1  C   LIG d   1      -7.618  75.556 116.122  0.00  0.00     0.161 C 
ATOM      2  C   LIG d   1      -8.452  74.430 116.233  0.00  0.00     0.016 C 
ATOM      3  C   LIG d   1      -7.963  73.111 116.370  0.00  0.00     0.038 C 
ATOM      4  C   LIG d   1      -6.600  72.841 116.558  0.00  0.00     0.028 C 
ATOM      5  C   LIG d   1      -5.683  73.896 115.948  0.00  0.00    -0.047 C 
ATOM      6  C   LIG d   1      -6.131  75.292 116.437  0.00  0.00     0.091 C 
ENDROOT
BRANCH   1   7
ATOM      7  O   LIG d   1      -8.124  76.622 116.949  0.00  0.00    -0.368 OA
BRANCH   7   8
ATOM      8  C   LIG d   1      -8.681  76.228 118.227  0.00  0.00     0.119 C 
BRANCH   8   9
ATOM      9  C   LIG d   1      -9.961  77.056 118.450  0.00  0.00     0.028 C 
ATOM     10  C   LIG d   1      -9.800  78.095 119.572  0.00  0.00     0.006 C 
ENDBRANCH   8   9
BRANCH   8  11
ATOM     11  C   LIG d   1      -7.748  76.605 119.382  0.00  0.00     0.028 C 
ATOM     12  C   LIG d   1      -7.207  75.380 120.136  0.00  0.00     0.006 C 
ENDBRANCH   8  11
ENDBRANCH   7   8
ENDBRANCH   1   7
BRANCH   6  13
ATOM     13  N   LIG d   1      -5.340  76.389 115.821  0.00  0.00    -0.311 N 
ATOM     14  C   LIG d   1      -4.263  76.926 116.392  0.00  0.00     0.210 C 
ATOM     15  C   LIG d   1      -3.606  78.059 115.596  0.00  0.00     0.109 C 
ATOM     16  O   LIG d   1      -3.770  76.551 117.466  0.00  0.00    -0.276 OA
ATOM     17  H   LIG d   1      -5.651  76.733 114.933  0.00  0.00     0.149 HD
ENDBRANCH   6  13
BRANCH   5  18
ATOM     18  N   LIG d   1      -4.300  73.563 116.337  0.00  0.00     0.381 N 
ATOM     19  H   LIG d   1      -3.790  74.403 116.526  0.00  0.00    -0.090 HD
ATOM     20  H   LIG d   1      -3.853  73.088 115.573  0.00  0.00    -0.090 HD
ATOM     21  H   LIG d   1      -4.303  72.979 117.144  0.00  0.00    -0.090 HD
ENDBRANCH   5  18
BRANCH   3  22
ATOM     22  C   LIG d   1      -8.840  72.040 116.279  0.00  0.00     0.382 C 
ATOM     23  O   LIG d   1      -8.395  70.870 116.199  0.00  0.00    -0.241 OA
ATOM     24  O   LIG d   1     -10.070  72.233 116.232  0.00  0.00    -0.241 OA
ENDBRANCH   3  22
TORSDOF 7
ENDMDL
MODEL 6
REMARK VINA RESULT:      -5.5      2.595      5.496
REMARK  7 active torsions:
REMARK  status: ('A' for Active; 'I' for Inactive)
REMARK    1  A    between atoms: C_2  and  C_3 
REMARK    2  A    between atoms: C_3  and  O_6 
REMARK    3  A    between atoms: C_3  and  C_4 
REMARK    4  A    between atoms: C_7  and  O_6 
REMARK    5  A    between atoms: C_9  and  C_10 
REMARK    6  A    between atoms: N_15  and  C_14 
REMARK    7  A    between atoms: N_20  and  C_19 
REMARK       I    between atoms: C_22  and  N_20 
ROOT
ATOM      1  C   LIG d   1      -5.760  74.705 116.418  0.00  0.00     0.161 C 
ATOM      2  C   LIG d   1      -6.417  73.531 116.012  0.00  0.00     0.016 C 
ATOM      3  C   LIG d   1      -7.807  73.323 116.168  0.00  0.00     0.038 C 
ATOM      4  C   LIG d   1      -8.664  74.344 116.606  0.00  0.00     0.028 C 
ATOM      5  C   LIG d   1      -7.978  75.371 117.499  0.00  0.00    -0.047 C 
ATOM      6  C   LIG d   1      -6.696  75.872 116.795  0.00  0.00     0.091 C 
ENDROOT
BRANCH   1   7
ATOM      7  O   LIG d   1      -4.828  75.119 115.400  0.00  0.00    -0.368 OA
BRANCH   7   8
ATOM      8  C   LIG d   1      -3.469  74.639 115.547  0.00  0.00     0.119 C 
BRANCH   8   9
ATOM      9  C   LIG d   1      -2.995  75.015 116.964  0.00  0.00     0.028 C 
ATOM     10  C   LIG d   1      -1.777  74.191 117.414  0.00  0.00     0.006 C 
ENDBRANCH   8   9
BRANCH   8  11
ATOM     11  C   LIG d   1      -2.514  75.365 114.595  0.00  0.00     0.028 C 
ATOM     12  C   LIG d   1      -2.702  76.891 114.613  0.00  0.00     0.006 C 
ENDBRANCH   8  11
ENDBRANCH   7   8
ENDBRANCH   1   7
BRANCH   6  13
ATOM     13  N   LIG d   1      -5.919  76.818 117.637  0.00  0.00    -0.311 N 
ATOM     14  C   LIG d   1      -5.512  78.013 117.213  0.00  0.00     0.210 C 
ATOM     15  C   LIG d   1      -4.707  78.822 118.235  0.00  0.00     0.109 C 
ATOM     16  O   LIG d   1      -5.768  78.493 116.099  0.00  0.00    -0.276 OA
ATOM     17  H   LIG d   1      -5.694  76.522 118.567  0.00  0.00     0.149 HD
ENDBRANCH   6  13
BRANCH   5  18
ATOM     18  N   LIG d   1      -8.949  76.448 117.768  0.00  0.00     0.381 N 
ATOM     19  H   LIG d   1      -9.730  76.081 118.275  0.00  0.00    -0.090 HD
ATOM     20  H   LIG d   1      -9.283  76.811 116.893  0.00  0.00    -0.090 HD
ATOM     21  H   LIG d   1      -8.515  77.175 118.294  0.00  0.00    -0.090 HD
ENDBRANCH   5  18
BRANCH   3  22
ATOM     22  C   LIG d   1      -8.346  72.070 115.923  0.00  0.00     0.382 C 
ATOM     23  O   LIG d   1      -9.582  71.887 116.032  0.00  0.00    -0.241 OA
ATOM     24  O   LIG d   1      -7.606  71.109 115.637  0.00  0.00    -0.241 OA
ENDBRANCH   3  22
TORSDOF 7
ENDMDL
MODEL 7
REMARK VINA RESULT:      -5.3      1.885      2.996
REMARK  7 active torsions:
REMARK  status: ('A' for Active; 'I' for Inactive)
REMARK    1  A    between atoms: C_2  and  C_3 
REMARK    2  A    between atoms: C_3  and  O_6 
REMARK    3  A    between atoms: C_3  and  C_4 
REMARK    4  A    between atoms: C_7  and  O_6 
REMARK    5  A    between atoms: C_9  and  C_10 
REMARK    6  A    between atoms: N_15  and  C_14 
REMARK    7  A    between atoms: N_20  and  C_19 
REMARK       I    between atoms: C_22  and  N_20 
ROOT
ATOM      1  C   LIG d   1      -6.223  77.721 117.039  0.00  0.00     0.161 C 
ATOM      2  C   LIG d   1      -7.561  77.759 117.465  0.00  0.00     0.016 C 
ATOM      3  C   LIG d   1      -8.205  78.939 117.902  0.00  0.00     0.038 C 
ATOM      4  C   LIG d   1      -7.596  80.198 117.798  0.00  0.00     0.028 C 
ATOM      5  C   LIG d   1      -6.073  80.140 117.847  0.00  0.00    -0.047 C 
ATOM      6  C   LIG d   1      -5.577  79.103 116.813  0.00  0.00     0.091 C 
ENDROOT
BRANCH   1   7
ATOM      7  O   LIG d   1      -6.112  76.915 115.848  0.00  0.00    -0.368 OA
BRANCH   7   8
ATOM      8  C   LIG d   1      -5.686  75.545 116.043  0.00  0.00     0.119 C 
BRANCH   8   9
ATOM      9  C   LIG d   1      -4.211  75.452 115.607  0.00  0.00     0.028 C 
ATOM     10  C   LIG d   1      -3.256  75.275 116.799  0.00  0.00     0.006 C 
ENDBRANCH   8   9
BRANCH   8  11
ATOM     11  C   LIG d   1      -6.444  74.588 115.118  0.00  0.00     0.028 C 
ATOM     12  C   LIG d   1      -7.757  74.078 115.734  0.00  0.00     0.006 C 
ENDBRANCH   8  11
ENDBRANCH   7   8
ENDBRANCH   1   7
BRANCH   6  13
ATOM     13  N   LIG d   1      -4.102  78.923 116.855  0.00  0.00    -0.311 N 
ATOM     14  C   LIG d   1      -3.307  79.145 115.810  0.00  0.00     0.210 C 
ATOM     15  C   LIG d   1      -1.819  78.878 116.061  0.00  0.00     0.109 C 
ATOM     16  O   LIG d   1      -3.688  79.568 114.708  0.00  0.00    -0.276 OA
ATOM     17  H   LIG d   1      -3.705  78.611 117.719  0.00  0.00     0.149 HD
ENDBRANCH   6  13
BRANCH   5  18
ATOM     18  N   LIG d   1      -5.566  81.501 117.590  0.00  0.00     0.381 N 
ATOM     19  H   LIG d   1      -6.125  81.944 116.888  0.00  0.00    -0.090 HD
ATOM     20  H   LIG d   1      -4.623  81.438 117.248  0.00  0.00    -0.090 HD
ATOM     21  H   LIG d   1      -5.588  82.037 118.429  0.00  0.00    -0.090 HD
ENDBRANCH   5  18
BRANCH   3  22
ATOM     22  C   LIG d   1      -9.460  78.861 118.487  0.00  0.00     0.382 C 
ATOM     23  O   LIG d   1     -10.105  77.785 118.447  0.00  0.00    -0.241 OA
ATOM     24  O   LIG d   1      -9.974  79.865 119.016  0.00  0.00    -0.241 OA
ENDBRANCH   3  22
TORSDOF 7
ENDMDL
MODEL 8
REMARK VINA RESULT:      -5.2      1.965      4.878
REMARK  7 active torsions:
REMARK  status: ('A' for Active; 'I' for Inactive)
REMARK    1  A    between atoms: C_2  and  C_3 
REMARK    2  A    between atoms: C_3  and  O_6 
REMARK    3  A    between atoms: C_3  and  C_4 
REMARK    4  A    between atoms: C_7  and  O_6 
REMARK    5  A    between atoms: C_9  and  C_10 
REMARK    6  A    between atoms: N_15  and  C_14 
REMARK    7  A    between atoms: N_20  and  C_19 
REMARK       I    between atoms: C_22  and  N_20 
ROOT
ATOM      1  C   LIG d   1      -7.739  76.249 117.378  0.00  0.00     0.161 C 
ATOM      2  C   LIG d   1      -8.776  75.301 117.386  0.00  0.00     0.016 C 
ATOM      3  C   LIG d   1      -8.810  74.177 116.529  0.00  0.00     0.038 C 
ATOM      4  C   LIG d   1      -7.726  73.840 115.705  0.00  0.00     0.028 C 
ATOM      5  C   LIG d   1      -6.880  75.041 115.296  0.00  0.00    -0.047 C 
ATOM      6  C   LIG d   1      -6.494  75.838 116.563  0.00  0.00     0.091 C 
ENDROOT
BRANCH   1   7
ATOM      7  O   LIG d   1      -7.366  76.577 118.731  0.00  0.00    -0.368 OA
BRANCH   7   8
ATOM      8  C   LIG d   1      -7.682  77.921 119.171  0.00  0.00     0.119 C 
BRANCH   8   9
ATOM      9  C   LIG d   1      -8.803  77.812 120.222  0.00  0.00     0.028 C 
ATOM     10  C   LIG d   1     -10.176  78.217 119.659  0.00  0.00     0.006 C 
ENDBRANCH   8   9
BRANCH   8  11
ATOM     11  C   LIG d   1      -8.274  78.756 118.031  0.00  0.00     0.028 C 
ATOM     12  C   LIG d   1      -7.448  80.015 117.724  0.00  0.00     0.006 C 
ENDBRANCH   8  11
ENDBRANCH   7   8
ENDBRANCH   1   7
BRANCH   6  13
ATOM     13  N   LIG d   1      -5.736  77.076 116.245  0.00  0.00    -0.311 N 
ATOM     14  C   LIG d   1      -4.406  77.138 116.228  0.00  0.00     0.210 C 
ATOM     15  C   LIG d   1      -3.826  78.516 115.896  0.00  0.00     0.109 C 
ATOM     16  O   LIG d   1      -3.651  76.174 116.426  0.00  0.00    -0.276 OA
ATOM     17  H   LIG d   1      -6.270  77.899 116.042  0.00  0.00     0.149 HD
ENDBRANCH   6  13
BRANCH   5  18
ATOM     18  N   LIG d   1      -5.711  74.532 114.555  0.00  0.00     0.381 N 
ATOM     19  H   LIG d   1      -5.631  73.543 114.687  0.00  0.00    -0.090 HD
ATOM     20  H   LIG d   1      -4.881  74.966 114.919  0.00  0.00    -0.090 HD
ATOM     21  H   LIG d   1      -5.805  74.738 113.585  0.00  0.00    -0.090 HD
ENDBRANCH   5  18
BRANCH   3  22
ATOM     22  C   LIG d   1      -9.955  73.398 116.463  0.00  0.00     0.382 C 
ATOM     23  O   LIG d   1     -11.073  73.904 116.720  0.00  0.00    -0.241 OA
ATOM     24  O   LIG d   1      -9.878  72.184 116.193  0.00  0.00    -0.241 OA
ENDBRANCH   3  22
TORSDOF 7
ENDMDL
MODEL 9
REMARK VINA RESULT:      -4.9      2.323      3.796
REMARK  7 active torsions:
REMARK  status: ('A' for Active; 'I' for Inactive)
REMARK    1  A    between atoms: C_2  and  C_3 
REMARK    2  A    between atoms: C_3  and  O_6 
REMARK    3  A    between atoms: C_3  and  C_4 
REMARK    4  A    between atoms: C_7  and  O_6 
REMARK    5  A    between atoms: C_9  and  C_10 
REMARK    6  A    between atoms: N_15  and  C_14 
REMARK    7  A    between atoms: N_20  and  C_19 
REMARK       I    between atoms: C_22  and  N_20 
ROOT
ATOM      1  C   LIG d   1      -6.627  78.107 117.408  0.00  0.00     0.161 C 
ATOM      2  C   LIG d   1      -7.911  77.771 117.869  0.00  0.00     0.016 C 
ATOM      3  C   LIG d   1      -8.757  78.680 118.546  0.00  0.00     0.038 C 
ATOM      4  C   LIG d   1      -8.433  80.039 118.676  0.00  0.00     0.028 C 
ATOM      5  C   LIG d   1      -6.932  80.306 118.673  0.00  0.00    -0.047 C 
ATOM      6  C   LIG d   1      -6.301  79.615 117.442  0.00  0.00     0.091 C 
ENDROOT
BRANCH   1   7
ATOM      7  O   LIG d   1      -6.432  77.582 116.080  0.00  0.00    -0.368 OA
BRANCH   7   8
ATOM      8  C   LIG d   1      -5.347  76.635 115.923  0.00  0.00     0.119 C 
BRANCH   8   9
ATOM      9  C   LIG d   1      -5.837  75.523 114.975  0.00  0.00     0.028 C 
ATOM     10  C   LIG d   1      -7.221  74.983 115.370  0.00  0.00     0.006 C 
ENDBRANCH   8   9
BRANCH   8  11
ATOM     11  C   LIG d   1      -5.026  75.929 117.244  0.00  0.00     0.028 C 
ATOM     12  C   LIG d   1      -3.546  76.051 117.641  0.00  0.00     0.006 C 
ENDBRANCH   8  11
ENDBRANCH   7   8
ENDBRANCH   1   7
BRANCH   6  13
ATOM     13  N   LIG d   1      -4.822  79.756 117.409  0.00  0.00    -0.311 N 
ATOM     14  C   LIG d   1      -4.194  80.742 116.770  0.00  0.00     0.210 C 
ATOM     15  C   LIG d   1      -2.665  80.690 116.844  0.00  0.00     0.109 C 
ATOM     16  O   LIG d   1      -4.759  81.673 116.176  0.00  0.00    -0.276 OA
ATOM     17  H   LIG d   1      -4.286  79.062 117.891  0.00  0.00     0.149 HD
ENDBRANCH   6  13
BRANCH   5  18
ATOM     18  N   LIG d   1      -6.740  81.769 118.675  0.00  0.00     0.381 N 
ATOM     19  H   LIG d   1      -7.600  82.223 118.908  0.00  0.00    -0.090 HD
ATOM     20  H   LIG d   1      -6.468  82.063 117.753  0.00  0.00    -0.090 HD
ATOM     21  H   LIG d   1      -6.035  82.019 119.333  0.00  0.00    -0.090 HD
ENDBRANCH   5  18
BRANCH   3  22
ATOM     22  C   LIG d   1      -9.924  78.222 119.137  0.00  0.00     0.382 C 
ATOM     23  O   LIG d   1     -10.597  77.320 118.581  0.00  0.00    -0.241 OA
ATOM     24  O   LIG d   1     -10.337  78.729 120.197  0.00  0.00    -0.241 OA
ENDBRANCH   3  22
TORSDOF 7
ENDMDL
