MODEL 1
REMARK VINA RESULT:      -6.0      0.000      0.000
REMARK  7 active torsions:
REMARK  status: ('A' for Active; 'I' for Inactive)
REMARK    1  A    between atoms: C_2  and  C_3 
REMARK    2  A    between atoms: C_3  and  O_6 
REMARK    3  A    between atoms: C_3  and  C_4 
REMARK    4  A    between atoms: C_7  and  O_6 
REMARK    5  A    between atoms: C_9  and  C_10 
REMARK    6  A    between atoms: N_15  and  C_14 
REMARK    7  A    between atoms: N_20  and  C_19 
REMARK       I    between atoms: C_22  and  N_20 
ROOT
ATOM      1  C   LIG d   1       2.116  84.184 110.244  0.00  0.00     0.161 C 
ATOM      2  C   LIG d   1       1.089  85.116 110.471  0.00  0.00     0.016 C 
ATOM      3  C   LIG d   1      -0.208  84.755 110.904  0.00  0.00     0.038 C 
ATOM      4  C   LIG d   1      -0.523  83.442 111.288  0.00  0.00     0.028 C 
ATOM      5  C   LIG d   1       0.334  82.387 110.596  0.00  0.00    -0.047 C 
ATOM      6  C   LIG d   1       1.824  82.761 110.764  0.00  0.00     0.091 C 
ENDROOT
BRANCH   1   7
ATOM      7  O   LIG d   1       3.352  84.676 110.798  0.00  0.00    -0.368 OA
BRANCH   7   8
ATOM      8  C   LIG d   1       3.238  85.481 111.997  0.00  0.00     0.119 C 
BRANCH   8   9
ATOM      9  C   LIG d   1       4.303  86.592 111.911  0.00  0.00     0.028 C 
ATOM     10  C   LIG d   1       4.151  87.638 113.028  0.00  0.00     0.006 C 
ENDBRANCH   8   9
BRANCH   8  11
ATOM     11  C   LIG d   1       3.595  84.673 113.248  0.00  0.00     0.028 C 
ATOM     12  C   LIG d   1       2.405  84.499 114.205  0.00  0.00     0.006 C 
ENDBRANCH   8  11
ENDBRANCH   7   8
ENDBRANCH   1   7
BRANCH   6  13
ATOM     13  N   LIG d   1       2.728  81.825 110.044  0.00  0.00    -0.311 N 
ATOM     14  C   LIG d   1       3.578  81.007 110.662  0.00  0.00     0.210 C 
ATOM     15  C   LIG d   1       4.432  80.140 109.732  0.00  0.00     0.109 C 
ATOM     16  O   LIG d   1       3.684  80.894 111.892  0.00  0.00    -0.276 OA
ATOM     17  H   LIG d   1       2.685  81.829 109.044  0.00  0.00     0.149 HD
ENDBRANCH   6  13
BRANCH   5  18
ATOM     18  N   LIG d   1      -0.005  81.080 111.188  0.00  0.00     0.381 N 
ATOM     19  H   LIG d   1      -0.927  81.112 111.577  0.00  0.00    -0.090 HD
ATOM     20  H   LIG d   1       0.643  80.881 111.930  0.00  0.00    -0.090 HD
ATOM     21  H   LIG d   1       0.045  80.367 110.494  0.00  0.00    -0.090 HD
ENDBRANCH   5  18
BRANCH   3  22
ATOM     22  C   LIG d   1      -1.217  85.705 110.919  0.00  0.00     0.382 C 
ATOM     23  O   LIG d   1      -1.761  86.059 109.845  0.00  0.00    -0.241 OA
ATOM     24  O   LIG d   1      -1.560  86.246 111.987  0.00  0.00    -0.241 OA
ENDBRANCH   3  22
TORSDOF 7
ENDMDL
MODEL 2
REMARK VINA RESULT:      -5.7      2.709      4.891
REMARK  7 active torsions:
REMARK  status: ('A' for Active; 'I' for Inactive)
REMARK    1  A    between atoms: C_2  and  C_3 
REMARK    2  A    between atoms: C_3  and  O_6 
REMARK    3  A    between atoms: C_3  and  C_4 
REMARK    4  A    between atoms: C_7  and  O_6 
REMARK    5  A    between atoms: C_9  and  C_10 
REMARK    6  A    between atoms: N_15  and  C_14 
REMARK    7  A    between atoms: N_20  and  C_19 
REMARK       I    between atoms: C_22  and  N_20 
ROOT
ATOM      1  C   LIG d   1       3.144  85.129 112.457  0.00  0.00     0.161 C 
ATOM      2  C   LIG d   1       3.771  86.313 112.880  0.00  0.00     0.016 C 
ATOM      3  C   LIG d   1       3.852  86.710 114.234  0.00  0.00     0.038 C 
ATOM      4  C   LIG d   1       3.440  85.869 115.279  0.00  0.00     0.028 C 
ATOM      5  C   LIG d   1       2.345  84.889 114.873  0.00  0.00    -0.047 C 
ATOM      6  C   LIG d   1       2.788  84.145 113.592  0.00  0.00     0.091 C 
ENDROOT
BRANCH   1   7
ATOM      7  O   LIG d   1       3.956  84.474 111.463  0.00  0.00    -0.368 OA
BRANCH   7   8
ATOM      8  C   LIG d   1       3.436  84.478 110.111  0.00  0.00     0.119 C 
BRANCH   8   9
ATOM      9  C   LIG d   1       2.063  85.176 110.146  0.00  0.00     0.028 C 
ATOM     10  C   LIG d   1       1.007  84.436 109.307  0.00  0.00     0.006 C 
ENDBRANCH   8   9
BRANCH   8  11
ATOM     11  C   LIG d   1       3.155  83.056 109.617  0.00  0.00     0.028 C 
ATOM     12  C   LIG d   1       4.416  82.177 109.583  0.00  0.00     0.006 C 
ENDBRANCH   8  11
ENDBRANCH   7   8
ENDBRANCH   1   7
BRANCH   6  13
ATOM     13  N   LIG d   1       1.738  83.227 113.078  0.00  0.00    -0.311 N 
ATOM     14  C   LIG d   1       1.972  81.958 112.748  0.00  0.00     0.210 C 
ATOM     15  C   LIG d   1       0.754  81.193 112.220  0.00  0.00     0.109 C 
ATOM     16  O   LIG d   1       3.064  81.385 112.871  0.00  0.00    -0.276 OA
ATOM     17  H   LIG d   1       0.815  83.602 112.976  0.00  0.00     0.149 HD
ENDBRANCH   6  13
BRANCH   5  18
ATOM     18  N   LIG d   1       2.110  83.985 116.014  0.00  0.00     0.381 N 
ATOM     19  H   LIG d   1       2.983  83.634 116.354  0.00  0.00    -0.090 HD
ATOM     20  H   LIG d   1       1.557  83.206 115.703  0.00  0.00    -0.090 HD
ATOM     21  H   LIG d   1       1.633  84.471 116.742  0.00  0.00    -0.090 HD
ENDBRANCH   5  18
BRANCH   3  22
ATOM     22  C   LIG d   1       4.313  87.979 114.552  0.00  0.00     0.382 C 
ATOM     23  O   LIG d   1       4.139  88.438 115.707  0.00  0.00    -0.241 OA
ATOM     24  O   LIG d   1       4.860  88.687 113.686  0.00  0.00    -0.241 OA
ENDBRANCH   3  22
TORSDOF 7
ENDMDL
MODEL 3
REMARK VINA RESULT:      -5.6      2.473      4.491
REMARK  7 active torsions:
REMARK  status: ('A' for Active; 'I' for Inactive)
REMARK    1  A    between atoms: C_2  and  C_3 
REMARK    2  A    between atoms: C_3  and  O_6 
REMARK    3  A    between atoms: C_3  and  C_4 
REMARK    4  A    between atoms: C_7  and  O_6 
REMARK    5  A    between atoms: C_9  and  C_10 
REMARK    6  A    between atoms: N_15  and  C_14 
REMARK    7  A    between atoms: N_20  and  C_19 
REMARK       I    between atoms: C_22  and  N_20 
ROOT
ATOM      1  C   LIG d   1       1.612  83.990 112.204  0.00  0.00     0.161 C 
ATOM      2  C   LIG d   1       0.434  84.372 111.540  0.00  0.00     0.016 C 
ATOM      3  C   LIG d   1       0.099  85.717 111.262  0.00  0.00     0.038 C 
ATOM      4  C   LIG d   1       0.997  86.769 111.498  0.00  0.00     0.028 C 
ATOM      5  C   LIG d   1       1.983  86.482 112.626  0.00  0.00    -0.047 C 
ATOM      6  C   LIG d   1       2.655  85.114 112.369  0.00  0.00     0.091 C 
ENDROOT
BRANCH   1   7
ATOM      7  O   LIG d   1       2.200  82.854 111.540  0.00  0.00    -0.368 OA
BRANCH   7   8
ATOM      8  C   LIG d   1       1.951  82.747 110.117  0.00  0.00     0.119 C 
BRANCH   8   9
ATOM      9  C   LIG d   1       1.629  81.271 109.813  0.00  0.00     0.028 C 
ATOM     10  C   LIG d   1       1.116  80.515 111.050  0.00  0.00     0.006 C 
ENDBRANCH   8   9
BRANCH   8  11
ATOM     11  C   LIG d   1       3.210  83.063 109.305  0.00  0.00     0.028 C 
ATOM     12  C   LIG d   1       4.487  82.485 109.936  0.00  0.00     0.006 C 
ENDBRANCH   8  11
ENDBRANCH   7   8
ENDBRANCH   1   7
BRANCH   6  13
ATOM     13  N   LIG d   1       3.573  84.719 113.470  0.00  0.00    -0.311 N 
ATOM     14  C   LIG d   1       3.176  84.549 114.730  0.00  0.00     0.210 C 
ATOM     15  C   LIG d   1       4.286  84.160 115.710  0.00  0.00     0.109 C 
ATOM     16  O   LIG d   1       2.004  84.652 115.122  0.00  0.00    -0.276 OA
ATOM     17  H   LIG d   1       4.536  84.583 113.234  0.00  0.00     0.149 HD
ENDBRANCH   6  13
BRANCH   5  18
ATOM     18  N   LIG d   1       2.945  87.600 112.671  0.00  0.00     0.381 N 
ATOM     19  H   LIG d   1       3.862  87.267 112.449  0.00  0.00    -0.090 HD
ATOM     20  H   LIG d   1       2.962  87.976 113.603  0.00  0.00    -0.090 HD
ATOM     21  H   LIG d   1       2.675  88.308 112.025  0.00  0.00    -0.090 HD
ENDBRANCH   5  18
BRANCH   3  22
ATOM     22  C   LIG d   1      -1.163  86.025 110.779  0.00  0.00     0.382 C 
ATOM     23  O   LIG d   1      -1.410  85.916 109.554  0.00  0.00    -0.241 OA
ATOM     24  O   LIG d   1      -2.047  86.452 111.547  0.00  0.00    -0.241 OA
ENDBRANCH   3  22
TORSDOF 7
ENDMDL
MODEL 4
REMARK VINA RESULT:      -5.6     12.086     14.100
REMARK  7 active torsions:
REMARK  status: ('A' for Active; 'I' for Inactive)
REMARK    1  A    between atoms: C_2  and  C_3 
REMARK    2  A    between atoms: C_3  and  O_6 
REMARK    3  A    between atoms: C_3  and  C_4 
REMARK    4  A    between atoms: C_7  and  O_6 
REMARK    5  A    between atoms: C_9  and  C_10 
REMARK    6  A    between atoms: N_15  and  C_14 
REMARK    7  A    between atoms: N_20  and  C_19 
REMARK       I    between atoms: C_22  and  N_20 
ROOT
ATOM      1  C   LIG d   1      -6.476  75.647 116.713  0.00  0.00     0.161 C 
ATOM      2  C   LIG d   1      -5.617  76.121 115.706  0.00  0.00     0.016 C 
ATOM      3  C   LIG d   1      -4.940  75.274 114.799  0.00  0.00     0.038 C 
ATOM      4  C   LIG d   1      -5.196  73.895 114.740  0.00  0.00     0.028 C 
ATOM      5  C   LIG d   1      -5.671  73.310 116.065  0.00  0.00    -0.047 C 
ATOM      6  C   LIG d   1      -6.853  74.156 116.592  0.00  0.00     0.091 C 
ENDROOT
BRANCH   1   7
ATOM      7  O   LIG d   1      -7.664  76.462 116.764  0.00  0.00    -0.368 OA
BRANCH   7   8
ATOM      8  C   LIG d   1      -7.888  77.184 118.000  0.00  0.00     0.119 C 
BRANCH   8   9
ATOM      9  C   LIG d   1      -9.394  77.108 118.315  0.00  0.00     0.028 C 
ATOM     10  C   LIG d   1      -9.701  76.167 119.492  0.00  0.00     0.006 C 
ENDBRANCH   8   9
BRANCH   8  11
ATOM     11  C   LIG d   1      -7.583  78.676 117.836  0.00  0.00     0.028 C 
ATOM     12  C   LIG d   1      -8.695  79.577 118.398  0.00  0.00     0.006 C 
ENDBRANCH   8  11
ENDBRANCH   7   8
ENDBRANCH   1   7
BRANCH   6  13
ATOM     13  N   LIG d   1      -7.324  73.702 117.927  0.00  0.00    -0.311 N 
ATOM     14  C   LIG d   1      -8.339  72.857 118.097  0.00  0.00     0.210 C 
ATOM     15  C   LIG d   1      -8.675  72.535 119.557  0.00  0.00     0.109 C 
ATOM     16  O   LIG d   1      -8.973  72.318 117.177  0.00  0.00    -0.276 OA
ATOM     17  H   LIG d   1      -6.846  74.066 118.727  0.00  0.00     0.149 HD
ENDBRANCH   6  13
BRANCH   5  18
ATOM     18  N   LIG d   1      -6.031  71.900 115.826  0.00  0.00     0.381 N 
ATOM     19  H   LIG d   1      -6.402  71.797 114.903  0.00  0.00    -0.090 HD
ATOM     20  H   LIG d   1      -6.741  71.629 116.483  0.00  0.00    -0.090 HD
ATOM     21  H   LIG d   1      -5.228  71.320 115.935  0.00  0.00    -0.090 HD
ENDBRANCH   5  18
BRANCH   3  22
ATOM     22  C   LIG d   1      -3.966  75.799 113.964  0.00  0.00     0.382 C 
ATOM     23  O   LIG d   1      -4.294  76.540 113.006  0.00  0.00    -0.241 OA
ATOM     24  O   LIG d   1      -2.767  75.507 114.131  0.00  0.00    -0.241 OA
ENDBRANCH   3  22
TORSDOF 7
ENDMDL
MODEL 5
REMARK VINA RESULT:      -5.6      8.918     11.516
REMARK  7 active torsions:
REMARK  status: ('A' for Active; 'I' for Inactive)
REMARK    1  A    between atoms: C_2  and  C_3 
REMARK    2  A    between atoms: C_3  and  O_6 
REMARK    3  A    between atoms: C_3  and  C_4 
REMARK    4  A    between atoms: C_7  and  O_6 
REMARK    5  A    between atoms: C_9  and  C_10 
REMARK    6  A    between atoms: N_15  and  C_14 
REMARK    7  A    between atoms: N_20  and  C_19 
REMARK       I    between atoms: C_22  and  N_20 
ROOT
ATOM      1  C   LIG d   1      -0.720  74.802 114.802  0.00  0.00     0.161 C 
ATOM      2  C   LIG d   1      -0.517  73.891 115.852  0.00  0.00     0.016 C 
ATOM      3  C   LIG d   1      -1.390  73.770 116.958  0.00  0.00     0.038 C 
ATOM      4  C   LIG d   1      -2.614  74.453 117.014  0.00  0.00     0.028 C 
ATOM      5  C   LIG d   1      -2.617  75.757 116.224  0.00  0.00    -0.047 C 
ATOM      6  C   LIG d   1      -2.108  75.477 114.791  0.00  0.00     0.091 C 
ENDROOT
BRANCH   1   7
ATOM      7  O   LIG d   1      -0.467  74.157 113.539  0.00  0.00    -0.368 OA
BRANCH   7   8
ATOM      8  C   LIG d   1       0.907  74.174 113.079  0.00  0.00     0.119 C 
BRANCH   8   9
ATOM      9  C   LIG d   1       1.002  75.209 111.941  0.00  0.00     0.028 C 
ATOM     10  C   LIG d   1      -0.313  75.340 111.156  0.00  0.00     0.006 C 
ENDBRANCH   8   9
BRANCH   8  11
ATOM     11  C   LIG d   1       1.298  72.836 112.444  0.00  0.00     0.028 C 
ATOM     12  C   LIG d   1       0.577  71.639 113.084  0.00  0.00     0.006 C 
ENDBRANCH   8  11
ENDBRANCH   7   8
ENDBRANCH   1   7
BRANCH   6  13
ATOM     13  N   LIG d   1      -2.000  76.715 113.976  0.00  0.00    -0.311 N 
ATOM     14  C   LIG d   1      -2.946  77.121 113.131  0.00  0.00     0.210 C 
ATOM     15  C   LIG d   1      -2.625  78.414 112.374  0.00  0.00     0.109 C 
ATOM     16  O   LIG d   1      -4.034  76.551 112.961  0.00  0.00    -0.276 OA
ATOM     17  H   LIG d   1      -1.163  77.255 114.075  0.00  0.00     0.149 HD
ENDBRANCH   6  13
BRANCH   5  18
ATOM     18  N   LIG d   1      -3.990  76.294 116.255  0.00  0.00     0.381 N 
ATOM     19  H   LIG d   1      -4.424  76.166 115.362  0.00  0.00    -0.090 HD
ATOM     20  H   LIG d   1      -3.950  77.279 116.448  0.00  0.00    -0.090 HD
ATOM     21  H   LIG d   1      -4.522  75.831 116.960  0.00  0.00    -0.090 HD
ENDBRANCH   5  18
BRANCH   3  22
ATOM     22  C   LIG d   1      -1.021  72.989 118.042  0.00  0.00     0.382 C 
ATOM     23  O   LIG d   1      -1.418  73.287 119.194  0.00  0.00    -0.241 OA
ATOM     24  O   LIG d   1      -0.260  72.015 117.889  0.00  0.00    -0.241 OA
ENDBRANCH   3  22
TORSDOF 7
ENDMDL
MODEL 6
REMARK VINA RESULT:      -5.3      2.900      4.910
REMARK  7 active torsions:
REMARK  status: ('A' for Active; 'I' for Inactive)
REMARK    1  A    between atoms: C_2  and  C_3 
REMARK    2  A    between atoms: C_3  and  O_6 
REMARK    3  A    between atoms: C_3  and  C_4 
REMARK    4  A    between atoms: C_7  and  O_6 
REMARK    5  A    between atoms: C_9  and  C_10 
REMARK    6  A    between atoms: N_15  and  C_14 
REMARK    7  A    between atoms: N_20  and  C_19 
REMARK       I    between atoms: C_22  and  N_20 
ROOT
ATOM      1  C   LIG d   1       2.833  84.424 113.457  0.00  0.00     0.161 C 
ATOM      2  C   LIG d   1       3.394  85.620 113.935  0.00  0.00     0.016 C 
ATOM      3  C   LIG d   1       3.337  86.843 113.228  0.00  0.00     0.038 C 
ATOM      4  C   LIG d   1       2.578  86.988 112.057  0.00  0.00     0.028 C 
ATOM      5  C   LIG d   1       2.413  85.688 111.277  0.00  0.00    -0.047 C 
ATOM      6  C   LIG d   1       1.904  84.588 112.236  0.00  0.00     0.091 C 
ENDROOT
BRANCH   1   7
ATOM      7  O   LIG d   1       2.140  83.749 114.526  0.00  0.00    -0.368 OA
BRANCH   7   8
ATOM      8  C   LIG d   1       2.902  82.753 115.251  0.00  0.00     0.119 C 
BRANCH   8   9
ATOM      9  C   LIG d   1       2.513  81.372 114.688  0.00  0.00     0.028 C 
ATOM     10  C   LIG d   1       1.782  80.501 115.724  0.00  0.00     0.006 C 
ENDBRANCH   8   9
BRANCH   8  11
ATOM     11  C   LIG d   1       2.505  82.715 116.730  0.00  0.00     0.028 C 
ATOM     12  C   LIG d   1       1.915  84.046 117.223  0.00  0.00     0.006 C 
ENDBRANCH   8  11
ENDBRANCH   7   8
ENDBRANCH   1   7
BRANCH   6  13
ATOM     13  N   LIG d   1       1.797  83.263 111.572  0.00  0.00    -0.311 N 
ATOM     14  C   LIG d   1       0.648  82.602 111.437  0.00  0.00     0.210 C 
ATOM     15  C   LIG d   1       0.763  81.243 110.739  0.00  0.00     0.109 C 
ATOM     16  O   LIG d   1      -0.459  83.025 111.801  0.00  0.00    -0.276 OA
ATOM     17  H   LIG d   1       2.642  82.859 111.219  0.00  0.00     0.149 HD
ENDBRANCH   6  13
BRANCH   5  18
ATOM     18  N   LIG d   1       1.489  85.954 110.159  0.00  0.00     0.381 N 
ATOM     19  H   LIG d   1       1.604  86.895 109.840  0.00  0.00    -0.090 HD
ATOM     20  H   LIG d   1       0.545  85.844 110.484  0.00  0.00    -0.090 HD
ATOM     21  H   LIG d   1       1.666  85.319 109.412  0.00  0.00    -0.090 HD
ENDBRANCH   5  18
BRANCH   3  22
ATOM     22  C   LIG d   1       4.079  87.928 113.671  0.00  0.00     0.382 C 
ATOM     23  O   LIG d   1       4.744  88.608 112.853  0.00  0.00    -0.241 OA
ATOM     24  O   LIG d   1       4.125  88.208 114.883  0.00  0.00    -0.241 OA
ENDBRANCH   3  22
TORSDOF 7
ENDMDL
MODEL 7
REMARK VINA RESULT:      -5.3      2.909      5.108
REMARK  7 active torsions:
REMARK  status: ('A' for Active; 'I' for Inactive)
REMARK    1  A    between atoms: C_2  and  C_3 
REMARK    2  A    between atoms: C_3  and  O_6 
REMARK    3  A    between atoms: C_3  and  C_4 
REMARK    4  A    between atoms: C_7  and  O_6 
REMARK    5  A    between atoms: C_9  and  C_10 
REMARK    6  A    between atoms: N_15  and  C_14 
REMARK    7  A    between atoms: N_20  and  C_19 
REMARK       I    between atoms: C_22  and  N_20 
ROOT
ATOM      1  C   LIG d   1       2.210  83.585 112.744  0.00  0.00     0.161 C 
ATOM      2  C   LIG d   1       2.471  84.853 112.200  0.00  0.00     0.016 C 
ATOM      3  C   LIG d   1       3.078  85.903 112.928  0.00  0.00     0.038 C 
ATOM      4  C   LIG d   1       3.606  85.705 114.213  0.00  0.00     0.028 C 
ATOM      5  C   LIG d   1       2.914  84.587 114.986  0.00  0.00    -0.047 C 
ATOM      6  C   LIG d   1       2.880  83.316 114.108  0.00  0.00     0.091 C 
ENDROOT
BRANCH   1   7
ATOM      7  O   LIG d   1       2.576  82.562 111.796  0.00  0.00    -0.368 OA
BRANCH   7   8
ATOM      8  C   LIG d   1       2.004  82.688 110.471  0.00  0.00     0.119 C 
BRANCH   8   9
ATOM      9  C   LIG d   1       0.827  81.698 110.378  0.00  0.00     0.028 C 
ATOM     10  C   LIG d   1       1.050  80.619 109.305  0.00  0.00     0.006 C 
ENDBRANCH   8   9
BRANCH   8  11
ATOM     11  C   LIG d   1       2.995  82.241 109.392  0.00  0.00     0.028 C 
ATOM     12  C   LIG d   1       4.391  82.860 109.572  0.00  0.00     0.006 C 
ENDBRANCH   8  11
ENDBRANCH   7   8
ENDBRANCH   1   7
BRANCH   6  13
ATOM     13  N   LIG d   1       2.146  82.199 114.757  0.00  0.00    -0.311 N 
ATOM     14  C   LIG d   1       2.746  81.228 115.444  0.00  0.00     0.210 C 
ATOM     15  C   LIG d   1       1.805  80.163 116.015  0.00  0.00     0.109 C 
ATOM     16  O   LIG d   1       3.965  81.166 115.663  0.00  0.00    -0.276 OA
ATOM     17  H   LIG d   1       1.150  82.188 114.656  0.00  0.00     0.149 HD
ENDBRANCH   6  13
BRANCH   5  18
ATOM     18  N   LIG d   1       3.652  84.398 116.250  0.00  0.00     0.381 N 
ATOM     19  H   LIG d   1       4.205  83.566 116.197  0.00  0.00    -0.090 HD
ATOM     20  H   LIG d   1       2.991  84.290 116.999  0.00  0.00    -0.090 HD
ATOM     21  H   LIG d   1       4.238  85.184 116.424  0.00  0.00    -0.090 HD
ENDBRANCH   5  18
BRANCH   3  22
ATOM     22  C   LIG d   1       3.125  87.178 112.385  0.00  0.00     0.382 C 
ATOM     23  O   LIG d   1       4.068  87.950 112.681  0.00  0.00    -0.241 OA
ATOM     24  O   LIG d   1       2.213  87.581 111.639  0.00  0.00    -0.241 OA
ENDBRANCH   3  22
TORSDOF 7
ENDMDL
MODEL 8
REMARK VINA RESULT:      -5.3      9.967     12.469
REMARK  7 active torsions:
REMARK  status: ('A' for Active; 'I' for Inactive)
REMARK    1  A    between atoms: C_2  and  C_3 
REMARK    2  A    between atoms: C_3  and  O_6 
REMARK    3  A    between atoms: C_3  and  C_4 
REMARK    4  A    between atoms: C_7  and  O_6 
REMARK    5  A    between atoms: C_9  and  C_10 
REMARK    6  A    between atoms: N_15  and  C_14 
REMARK    7  A    between atoms: N_20  and  C_19 
REMARK       I    between atoms: C_22  and  N_20 
ROOT
ATOM      1  C   LIG d   1      -2.943  74.627 115.662  0.00  0.00     0.161 C 
ATOM      2  C   LIG d   1      -2.559  73.883 116.791  0.00  0.00     0.016 C 
ATOM      3  C   LIG d   1      -1.250  73.899 117.324  0.00  0.00     0.038 C 
ATOM      4  C   LIG d   1      -0.267  74.782 116.852  0.00  0.00     0.028 C 
ATOM      5  C   LIG d   1      -0.464  75.183 115.394  0.00  0.00    -0.047 C 
ATOM      6  C   LIG d   1      -1.915  75.681 115.201  0.00  0.00     0.091 C 
ENDROOT
BRANCH   1   7
ATOM      7  O   LIG d   1      -4.223  75.245 115.898  0.00  0.00    -0.368 OA
BRANCH   7   8
ATOM      8  C   LIG d   1      -5.362  74.616 115.261  0.00  0.00     0.119 C 
BRANCH   8   9
ATOM      9  C   LIG d   1      -6.351  75.733 114.872  0.00  0.00     0.028 C 
ATOM     10  C   LIG d   1      -7.387  76.010 115.974  0.00  0.00     0.006 C 
ENDBRANCH   8   9
BRANCH   8  11
ATOM     11  C   LIG d   1      -6.126  73.722 116.242  0.00  0.00     0.028 C 
ATOM     12  C   LIG d   1      -6.032  72.230 115.885  0.00  0.00     0.006 C 
ENDBRANCH   8  11
ENDBRANCH   7   8
ENDBRANCH   1   7
BRANCH   6  13
ATOM     13  N   LIG d   1      -2.216  76.014 113.785  0.00  0.00    -0.311 N 
ATOM     14  C   LIG d   1      -2.863  77.118 113.413  0.00  0.00     0.210 C 
ATOM     15  C   LIG d   1      -3.088  77.259 111.905  0.00  0.00     0.109 C 
ATOM     16  O   LIG d   1      -3.242  78.010 114.187  0.00  0.00    -0.276 OA
ATOM     17  H   LIG d   1      -1.916  75.360 113.089  0.00  0.00     0.149 HD
ENDBRANCH   6  13
BRANCH   5  18
ATOM     18  N   LIG d   1       0.547  76.209 115.074  0.00  0.00     0.381 N 
ATOM     19  H   LIG d   1       0.134  76.928 114.513  0.00  0.00    -0.090 HD
ATOM     20  H   LIG d   1       1.287  75.783 114.546  0.00  0.00    -0.090 HD
ATOM     21  H   LIG d   1       0.911  76.602 115.914  0.00  0.00    -0.090 HD
ENDBRANCH   5  18
BRANCH   3  22
ATOM     22  C   LIG d   1      -0.901  72.994 118.316  0.00  0.00     0.382 C 
ATOM     23  O   LIG d   1      -0.265  71.954 118.020  0.00  0.00    -0.241 OA
ATOM     24  O   LIG d   1      -1.252  73.184 119.495  0.00  0.00    -0.241 OA
ENDBRANCH   3  22
TORSDOF 7
ENDMDL
MODEL 9
REMARK VINA RESULT:      -5.3      8.911     10.929
REMARK  7 active torsions:
REMARK  status: ('A' for Active; 'I' for Inactive)
REMARK    1  A    between atoms: C_2  and  C_3 
REMARK    2  A    between atoms: C_3  and  O_6 
REMARK    3  A    between atoms: C_3  and  C_4 
REMARK    4  A    between atoms: C_7  and  O_6 
REMARK    5  A    between atoms: C_9  and  C_10 
REMARK    6  A    between atoms: N_15  and  C_14 
REMARK    7  A    between atoms: N_20  and  C_19 
REMARK       I    between atoms: C_22  and  N_20 
ROOT
ATOM      1  C   LIG d   1      -2.153  75.676 114.903  0.00  0.00     0.161 C 
ATOM      2  C   LIG d   1      -2.680  76.276 113.747  0.00  0.00     0.016 C 
ATOM      3  C   LIG d   1      -1.931  76.480 112.566  0.00  0.00     0.038 C 
ATOM      4  C   LIG d   1      -0.640  75.957 112.407  0.00  0.00     0.028 C 
ATOM      5  C   LIG d   1       0.111  75.786 113.723  0.00  0.00    -0.047 C 
ATOM      6  C   LIG d   1      -0.780  74.998 114.710  0.00  0.00     0.091 C 
ENDROOT
BRANCH   1   7
ATOM      7  O   LIG d   1      -3.104  74.737 115.442  0.00  0.00    -0.368 OA
BRANCH   7   8
ATOM      8  C   LIG d   1      -4.497  74.992 115.136  0.00  0.00     0.119 C 
BRANCH   8   9
ATOM      9  C   LIG d   1      -5.172  75.485 116.430  0.00  0.00     0.028 C 
ATOM     10  C   LIG d   1      -6.275  76.522 116.158  0.00  0.00     0.006 C 
ENDBRANCH   8   9
BRANCH   8  11
ATOM     11  C   LIG d   1      -5.231  73.702 114.761  0.00  0.00     0.028 C 
ATOM     12  C   LIG d   1      -5.703  72.907 115.989  0.00  0.00     0.006 C 
ENDBRANCH   8  11
ENDBRANCH   7   8
ENDBRANCH   1   7
BRANCH   6  13
ATOM     13  N   LIG d   1      -0.155  74.860 116.052  0.00  0.00    -0.311 N 
ATOM     14  C   LIG d   1       0.150  73.686 116.601  0.00  0.00     0.210 C 
ATOM     15  C   LIG d   1       0.770  73.767 117.999  0.00  0.00     0.109 C 
ATOM     16  O   LIG d   1      -0.003  72.586 116.049  0.00  0.00    -0.276 OA
ATOM     17  H   LIG d   1       0.033  75.704 116.557  0.00  0.00     0.149 HD
ENDBRANCH   6  13
BRANCH   5  18
ATOM     18  N   LIG d   1       1.385  75.106 113.425  0.00  0.00     0.381 N 
ATOM     19  H   LIG d   1       1.857  75.581 112.681  0.00  0.00    -0.090 HD
ATOM     20  H   LIG d   1       1.190  74.167 113.125  0.00  0.00    -0.090 HD
ATOM     21  H   LIG d   1       1.962  75.090 114.237  0.00  0.00    -0.090 HD
ENDBRANCH   5  18
BRANCH   3  22
ATOM     22  C   LIG d   1      -2.461  77.250 111.541  0.00  0.00     0.382 C 
ATOM     23  O   LIG d   1      -3.531  76.904 110.985  0.00  0.00    -0.241 OA
ATOM     24  O   LIG d   1      -1.858  78.262 111.135  0.00  0.00    -0.241 OA
ENDBRANCH   3  22
TORSDOF 7
ENDMDL
