MODEL 1
REMARK VINA RESULT:      -5.5      0.000      0.000
REMARK  7 active torsions:
REMARK  status: ('A' for Active; 'I' for Inactive)
REMARK    1  A    between atoms: C_2  and  C_3 
REMARK    2  A    between atoms: C_3  and  O_6 
REMARK    3  A    between atoms: C_3  and  C_4 
REMARK    4  A    between atoms: C_7  and  O_6 
REMARK    5  A    between atoms: C_9  and  C_10 
REMARK    6  A    between atoms: N_15  and  C_14 
REMARK    7  A    between atoms: N_20  and  C_19 
REMARK       I    between atoms: C_22  and  N_20 
ROOT
ATOM      1  C   LIG d   1      -7.031  77.061 117.563  0.00  0.00     0.161 C 
ATOM      2  C   LIG d   1      -8.276  77.640 117.861  0.00  0.00     0.016 C 
ATOM      3  C   LIG d   1      -8.488  79.036 117.930  0.00  0.00     0.038 C 
ATOM      4  C   LIG d   1      -7.498  79.956 117.555  0.00  0.00     0.028 C 
ATOM      5  C   LIG d   1      -6.079  79.426 117.735  0.00  0.00    -0.047 C 
ATOM      6  C   LIG d   1      -5.967  78.049 117.042  0.00  0.00     0.091 C 
ENDROOT
BRANCH   1   7
ATOM      7  O   LIG d   1      -7.208  75.976 116.630  0.00  0.00    -0.368 OA
BRANCH   7   8
ATOM      8  C   LIG d   1      -6.699  74.686 117.049  0.00  0.00     0.119 C 
BRANCH   8   9
ATOM      9  C   LIG d   1      -6.020  74.037 115.827  0.00  0.00     0.028 C 
ATOM     10  C   LIG d   1      -5.705  75.057 114.720  0.00  0.00     0.006 C 
ENDBRANCH   8   9
BRANCH   8  11
ATOM     11  C   LIG d   1      -7.838  73.736 117.432  0.00  0.00     0.028 C 
ATOM     12  C   LIG d   1      -7.682  72.338 116.812  0.00  0.00     0.006 C 
ENDBRANCH   8  11
ENDBRANCH   7   8
ENDBRANCH   1   7
BRANCH   6  13
ATOM     13  N   LIG d   1      -4.634  77.421 117.242  0.00  0.00    -0.311 N 
ATOM     14  C   LIG d   1      -3.638  77.520 116.363  0.00  0.00     0.210 C 
ATOM     15  C   LIG d   1      -2.355  76.780 116.755  0.00  0.00     0.109 C 
ATOM     16  O   LIG d   1      -3.684  78.177 115.312  0.00  0.00    -0.276 OA
ATOM     17  H   LIG d   1      -4.500  76.895 118.083  0.00  0.00     0.149 HD
ENDBRANCH   6  13
BRANCH   5  18
ATOM     18  N   LIG d   1      -5.154  80.431 117.178  0.00  0.00     0.381 N 
ATOM     19  H   LIG d   1      -4.254  80.335 117.604  0.00  0.00    -0.090 HD
ATOM     20  H   LIG d   1      -5.506  81.348 117.388  0.00  0.00    -0.090 HD
ATOM     21  H   LIG d   1      -5.077  80.314 116.192  0.00  0.00    -0.090 HD
ENDBRANCH   5  18
BRANCH   3  22
ATOM     22  C   LIG d   1      -9.691  79.525 118.417  0.00  0.00     0.382 C 
ATOM     23  O   LIG d   1     -10.276  78.930 119.354  0.00  0.00    -0.241 OA
ATOM     24  O   LIG d   1     -10.220  80.528 117.903  0.00  0.00    -0.241 OA
ENDBRANCH   3  22
TORSDOF 7
ENDMDL
MODEL 2
REMARK VINA RESULT:      -5.4     12.935     14.706
REMARK  7 active torsions:
REMARK  status: ('A' for Active; 'I' for Inactive)
REMARK    1  A    between atoms: C_2  and  C_3 
REMARK    2  A    between atoms: C_3  and  O_6 
REMARK    3  A    between atoms: C_3  and  C_4 
REMARK    4  A    between atoms: C_7  and  O_6 
REMARK    5  A    between atoms: C_9  and  C_10 
REMARK    6  A    between atoms: N_15  and  C_14 
REMARK    7  A    between atoms: N_20  and  C_19 
REMARK       I    between atoms: C_22  and  N_20 
ROOT
ATOM      1  C   LIG d   1      -3.429  90.367 117.901  0.00  0.00     0.161 C 
ATOM      2  C   LIG d   1      -3.768  89.827 116.649  0.00  0.00     0.016 C 
ATOM      3  C   LIG d   1      -4.978  90.117 115.978  0.00  0.00     0.038 C 
ATOM      4  C   LIG d   1      -5.870  91.092 116.447  0.00  0.00     0.028 C 
ATOM      5  C   LIG d   1      -5.810  91.292 117.958  0.00  0.00    -0.047 C 
ATOM      6  C   LIG d   1      -4.340  91.518 118.376  0.00  0.00     0.091 C 
ENDROOT
BRANCH   1   7
ATOM      7  O   LIG d   1      -2.051  90.788 117.894  0.00  0.00    -0.368 OA
BRANCH   7   8
ATOM      8  C   LIG d   1      -1.094  89.848 118.444  0.00  0.00     0.119 C 
BRANCH   8   9
ATOM      9  C   LIG d   1      -0.730  90.333 119.860  0.00  0.00     0.028 C 
ATOM     10  C   LIG d   1      -1.427  89.513 120.959  0.00  0.00     0.006 C 
ENDBRANCH   8   9
BRANCH   8  11
ATOM     11  C   LIG d   1       0.220  89.867 117.657  0.00  0.00     0.028 C 
ATOM     12  C   LIG d   1       0.634  91.282 117.223  0.00  0.00     0.006 C 
ENDBRANCH   8  11
ENDBRANCH   7   8
ENDBRANCH   1   7
BRANCH   6  13
ATOM     13  N   LIG d   1      -4.181  91.638 119.849  0.00  0.00    -0.311 N 
ATOM     14  C   LIG d   1      -3.554  92.654 120.439  0.00  0.00     0.210 C 
ATOM     15  C   LIG d   1      -3.486  92.573 121.967  0.00  0.00     0.109 C 
ATOM     16  O   LIG d   1      -3.076  93.632 119.843  0.00  0.00    -0.276 OA
ATOM     17  H   LIG d   1      -4.567  90.904 120.410  0.00  0.00     0.149 HD
ENDBRANCH   6  13
BRANCH   5  18
ATOM     18  N   LIG d   1      -6.688  92.428 118.293  0.00  0.00     0.381 N 
ATOM     19  H   LIG d   1      -7.646  92.158 118.191  0.00  0.00    -0.090 HD
ATOM     20  H   LIG d   1      -6.504  93.181 117.653  0.00  0.00    -0.090 HD
ATOM     21  H   LIG d   1      -6.517  92.728 119.227  0.00  0.00    -0.090 HD
ENDBRANCH   5  18
BRANCH   3  22
ATOM     22  C   LIG d   1      -5.324  89.399 114.843  0.00  0.00     0.382 C 
ATOM     23  O   LIG d   1      -6.470  89.523 114.348  0.00  0.00    -0.241 OA
ATOM     24  O   LIG d   1      -4.519  88.595 114.334  0.00  0.00    -0.241 OA
ENDBRANCH   3  22
TORSDOF 7
ENDMDL
MODEL 3
REMARK VINA RESULT:      -5.3      2.301      5.615
REMARK  7 active torsions:
REMARK  status: ('A' for Active; 'I' for Inactive)
REMARK    1  A    between atoms: C_2  and  C_3 
REMARK    2  A    between atoms: C_3  and  O_6 
REMARK    3  A    between atoms: C_3  and  C_4 
REMARK    4  A    between atoms: C_7  and  O_6 
REMARK    5  A    between atoms: C_9  and  C_10 
REMARK    6  A    between atoms: N_15  and  C_14 
REMARK    7  A    between atoms: N_20  and  C_19 
REMARK       I    between atoms: C_22  and  N_20 
ROOT
ATOM      1  C   LIG d   1      -4.939  75.989 115.649  0.00  0.00     0.161 C 
ATOM      2  C   LIG d   1      -3.993  74.983 115.394  0.00  0.00     0.016 C 
ATOM      3  C   LIG d   1      -2.727  74.928 116.020  0.00  0.00     0.038 C 
ATOM      4  C   LIG d   1      -2.377  75.798 117.063  0.00  0.00     0.028 C 
ATOM      5  C   LIG d   1      -3.101  77.139 117.002  0.00  0.00    -0.047 C 
ATOM      6  C   LIG d   1      -4.620  76.883 116.866  0.00  0.00     0.091 C 
ENDROOT
BRANCH   1   7
ATOM      7  O   LIG d   1      -6.250  75.405 115.787  0.00  0.00    -0.368 OA
BRANCH   7   8
ATOM      8  C   LIG d   1      -6.430  74.501 116.905  0.00  0.00     0.119 C 
BRANCH   8   9
ATOM      9  C   LIG d   1      -6.893  73.146 116.334  0.00  0.00     0.028 C 
ATOM     10  C   LIG d   1      -7.784  72.369 117.317  0.00  0.00     0.006 C 
ENDBRANCH   8   9
BRANCH   8  11
ATOM     11  C   LIG d   1      -7.567  74.965 117.820  0.00  0.00     0.028 C 
ATOM     12  C   LIG d   1      -8.425  76.072 117.188  0.00  0.00     0.006 C 
ENDBRANCH   8  11
ENDBRANCH   7   8
ENDBRANCH   1   7
BRANCH   6  13
ATOM     13  N   LIG d   1      -5.395  78.142 116.715  0.00  0.00    -0.311 N 
ATOM     14  C   LIG d   1      -5.984  78.767 117.733  0.00  0.00     0.210 C 
ATOM     15  C   LIG d   1      -6.749  80.039 117.355  0.00  0.00     0.109 C 
ATOM     16  O   LIG d   1      -5.917  78.407 118.918  0.00  0.00    -0.276 OA
ATOM     17  H   LIG d   1      -5.473  78.522 115.792  0.00  0.00     0.149 HD
ENDBRANCH   6  13
BRANCH   5  18
ATOM     18  N   LIG d   1      -2.749  77.891 118.221  0.00  0.00     0.381 N 
ATOM     19  H   LIG d   1      -3.175  77.463 119.019  0.00  0.00    -0.090 HD
ATOM     20  H   LIG d   1      -3.104  78.828 118.139  0.00  0.00    -0.090 HD
ATOM     21  H   LIG d   1      -1.759  77.912 118.334  0.00  0.00    -0.090 HD
ENDBRANCH   5  18
BRANCH   3  22
ATOM     22  C   LIG d   1      -1.779  74.019 115.574  0.00  0.00     0.382 C 
ATOM     23  O   LIG d   1      -1.558  73.895 114.346  0.00  0.00    -0.241 OA
ATOM     24  O   LIG d   1      -1.174  73.290 116.383  0.00  0.00    -0.241 OA
ENDBRANCH   3  22
TORSDOF 7
ENDMDL
MODEL 4
REMARK VINA RESULT:      -5.2      2.018      3.042
REMARK  7 active torsions:
REMARK  status: ('A' for Active; 'I' for Inactive)
REMARK    1  A    between atoms: C_2  and  C_3 
REMARK    2  A    between atoms: C_3  and  O_6 
REMARK    3  A    between atoms: C_3  and  C_4 
REMARK    4  A    between atoms: C_7  and  O_6 
REMARK    5  A    between atoms: C_9  and  C_10 
REMARK    6  A    between atoms: N_15  and  C_14 
REMARK    7  A    between atoms: N_20  and  C_19 
REMARK       I    between atoms: C_22  and  N_20 
ROOT
ATOM      1  C   LIG d   1      -5.600  78.551 117.169  0.00  0.00     0.161 C 
ATOM      2  C   LIG d   1      -6.868  77.958 117.289  0.00  0.00     0.016 C 
ATOM      3  C   LIG d   1      -8.045  78.688 117.571  0.00  0.00     0.038 C 
ATOM      4  C   LIG d   1      -8.058  80.090 117.605  0.00  0.00     0.028 C 
ATOM      5  C   LIG d   1      -6.714  80.699 117.990  0.00  0.00    -0.047 C 
ATOM      6  C   LIG d   1      -5.612  80.092 117.093  0.00  0.00     0.091 C 
ENDROOT
BRANCH   1   7
ATOM      7  O   LIG d   1      -4.907  77.998 116.033  0.00  0.00    -0.368 OA
BRANCH   7   8
ATOM      8  C   LIG d   1      -4.860  76.552 115.957  0.00  0.00     0.119 C 
BRANCH   8   9
ATOM      9  C   LIG d   1      -3.422  76.117 116.301  0.00  0.00     0.028 C 
ATOM     10  C   LIG d   1      -3.362  75.230 117.556  0.00  0.00     0.006 C 
ENDBRANCH   8   9
BRANCH   8  11
ATOM     11  C   LIG d   1      -5.101  76.061 114.527  0.00  0.00     0.028 C 
ATOM     12  C   LIG d   1      -5.516  74.583 114.466  0.00  0.00     0.006 C 
ENDBRANCH   8  11
ENDBRANCH   7   8
ENDBRANCH   1   7
BRANCH   6  13
ATOM     13  N   LIG d   1      -4.254  80.571 117.460  0.00  0.00    -0.311 N 
ATOM     14  C   LIG d   1      -3.633  81.567 116.831  0.00  0.00     0.210 C 
ATOM     15  C   LIG d   1      -2.230  81.889 117.356  0.00  0.00     0.109 C 
ATOM     16  O   LIG d   1      -4.123  82.236 115.908  0.00  0.00    -0.276 OA
ATOM     17  H   LIG d   1      -3.796  80.105 118.218  0.00  0.00     0.149 HD
ENDBRANCH   6  13
BRANCH   5  18
ATOM     18  N   LIG d   1      -6.832  82.163 117.852  0.00  0.00     0.381 N 
ATOM     19  H   LIG d   1      -5.946  82.592 118.029  0.00  0.00    -0.090 HD
ATOM     20  H   LIG d   1      -7.489  82.502 118.532  0.00  0.00    -0.090 HD
ATOM     21  H   LIG d   1      -7.144  82.394 116.934  0.00  0.00    -0.090 HD
ENDBRANCH   5  18
BRANCH   3  22
ATOM     22  C   LIG d   1      -9.220  78.011 117.864  0.00  0.00     0.382 C 
ATOM     23  O   LIG d   1      -9.339  76.800 117.558  0.00  0.00    -0.241 OA
ATOM     24  O   LIG d   1     -10.179  78.608 118.389  0.00  0.00    -0.241 OA
ENDBRANCH   3  22
TORSDOF 7
ENDMDL
MODEL 5
REMARK VINA RESULT:      -5.1      4.097      6.587
REMARK  7 active torsions:
REMARK  status: ('A' for Active; 'I' for Inactive)
REMARK    1  A    between atoms: C_2  and  C_3 
REMARK    2  A    between atoms: C_3  and  O_6 
REMARK    3  A    between atoms: C_3  and  C_4 
REMARK    4  A    between atoms: C_7  and  O_6 
REMARK    5  A    between atoms: C_9  and  C_10 
REMARK    6  A    between atoms: N_15  and  C_14 
REMARK    7  A    between atoms: N_20  and  C_19 
REMARK       I    between atoms: C_22  and  N_20 
ROOT
ATOM      1  C   LIG d   1      -1.845  76.043 114.913  0.00  0.00     0.161 C 
ATOM      2  C   LIG d   1      -1.687  75.024 115.867  0.00  0.00     0.016 C 
ATOM      3  C   LIG d   1      -0.929  75.178 117.051  0.00  0.00     0.038 C 
ATOM      4  C   LIG d   1      -0.399  76.419 117.436  0.00  0.00     0.028 C 
ATOM      5  C   LIG d   1      -0.107  77.344 116.260  0.00  0.00    -0.047 C 
ATOM      6  C   LIG d   1      -1.367  77.437 115.370  0.00  0.00     0.091 C 
ENDROOT
BRANCH   1   7
ATOM      7  O   LIG d   1      -3.220  76.101 114.484  0.00  0.00    -0.368 OA
BRANCH   7   8
ATOM      8  C   LIG d   1      -4.215  75.791 115.490  0.00  0.00     0.119 C 
BRANCH   8   9
ATOM      9  C   LIG d   1      -5.297  74.922 114.819  0.00  0.00     0.028 C 
ATOM     10  C   LIG d   1      -6.113  74.110 115.839  0.00  0.00     0.006 C 
ENDBRANCH   8   9
BRANCH   8  11
ATOM     11  C   LIG d   1      -4.944  77.054 115.960  0.00  0.00     0.028 C 
ATOM     12  C   LIG d   1      -4.527  77.491 117.373  0.00  0.00     0.006 C 
ENDBRANCH   8  11
ENDBRANCH   7   8
ENDBRANCH   1   7
BRANCH   6  13
ATOM     13  N   LIG d   1      -1.141  78.257 114.151  0.00  0.00    -0.311 N 
ATOM     14  C   LIG d   1      -1.946  79.248 113.773  0.00  0.00     0.210 C 
ATOM     15  C   LIG d   1      -1.541  79.951 112.474  0.00  0.00     0.109 C 
ATOM     16  O   LIG d   1      -2.940  79.632 114.408  0.00  0.00    -0.276 OA
ATOM     17  H   LIG d   1      -0.339  78.033 113.593  0.00  0.00     0.149 HD
ENDBRANCH   6  13
BRANCH   5  18
ATOM     18  N   LIG d   1       0.309  78.647 116.811  0.00  0.00     0.381 N 
ATOM     19  H   LIG d   1       1.041  78.514 117.480  0.00  0.00    -0.090 HD
ATOM     20  H   LIG d   1      -0.474  79.067 117.280  0.00  0.00    -0.090 HD
ATOM     21  H   LIG d   1       0.625  79.243 116.077  0.00  0.00    -0.090 HD
ENDBRANCH   5  18
BRANCH   3  22
ATOM     22  C   LIG d   1      -0.661  74.073 117.844  0.00  0.00     0.382 C 
ATOM     23  O   LIG d   1       0.278  74.110 118.676  0.00  0.00    -0.241 OA
ATOM     24  O   LIG d   1      -1.317  73.023 117.707  0.00  0.00    -0.241 OA
ENDBRANCH   3  22
TORSDOF 7
ENDMDL
MODEL 6
REMARK VINA RESULT:      -5.0     13.279     15.207
REMARK  7 active torsions:
REMARK  status: ('A' for Active; 'I' for Inactive)
REMARK    1  A    between atoms: C_2  and  C_3 
REMARK    2  A    between atoms: C_3  and  O_6 
REMARK    3  A    between atoms: C_3  and  C_4 
REMARK    4  A    between atoms: C_7  and  O_6 
REMARK    5  A    between atoms: C_9  and  C_10 
REMARK    6  A    between atoms: N_15  and  C_14 
REMARK    7  A    between atoms: N_20  and  C_19 
REMARK       I    between atoms: C_22  and  N_20 
ROOT
ATOM      1  C   LIG d   1      -4.906  91.690 118.633  0.00  0.00     0.161 C 
ATOM      2  C   LIG d   1      -5.910  91.593 117.655  0.00  0.00     0.016 C 
ATOM      3  C   LIG d   1      -5.767  90.844 116.464  0.00  0.00     0.038 C 
ATOM      4  C   LIG d   1      -4.659  90.013 116.240  0.00  0.00     0.028 C 
ATOM      5  C   LIG d   1      -3.399  90.473 116.966  0.00  0.00    -0.047 C 
ATOM      6  C   LIG d   1      -3.735  90.701 118.458  0.00  0.00     0.091 C 
ENDROOT
BRANCH   1   7
ATOM      7  O   LIG d   1      -5.487  91.552 119.945  0.00  0.00    -0.368 OA
BRANCH   7   8
ATOM      8  C   LIG d   1      -5.287  92.664 120.851  0.00  0.00     0.119 C 
BRANCH   8   9
ATOM      9  C   LIG d   1      -6.662  93.037 121.438  0.00  0.00     0.028 C 
ATOM     10  C   LIG d   1      -7.423  94.041 120.557  0.00  0.00     0.006 C 
ENDBRANCH   8   9
BRANCH   8  11
ATOM     11  C   LIG d   1      -4.813  93.914 120.103  0.00  0.00     0.028 C 
ATOM     12  C   LIG d   1      -3.504  94.488 120.670  0.00  0.00     0.006 C 
ENDBRANCH   8  11
ENDBRANCH   7   8
ENDBRANCH   1   7
BRANCH   6  13
ATOM     13  N   LIG d   1      -2.578  91.234 119.224  0.00  0.00    -0.311 N 
ATOM     14  C   LIG d   1      -2.040  90.608 120.269  0.00  0.00     0.210 C 
ATOM     15  C   LIG d   1      -0.867  91.340 120.928  0.00  0.00     0.109 C 
ATOM     16  O   LIG d   1      -2.402  89.500 120.693  0.00  0.00    -0.276 OA
ATOM     17  H   LIG d   1      -2.201  92.113 118.928  0.00  0.00     0.149 HD
ENDBRANCH   6  13
BRANCH   5  18
ATOM     18  N   LIG d   1      -2.363  89.444 116.757  0.00  0.00     0.381 N 
ATOM     19  H   LIG d   1      -1.686  89.491 117.492  0.00  0.00    -0.090 HD
ATOM     20  H   LIG d   1      -1.896  89.626 115.886  0.00  0.00    -0.090 HD
ATOM     21  H   LIG d   1      -2.780  88.540 116.737  0.00  0.00    -0.090 HD
ENDBRANCH   5  18
BRANCH   3  22
ATOM     22  C   LIG d   1      -6.721  90.954 115.464  0.00  0.00     0.382 C 
ATOM     23  O   LIG d   1      -7.864  90.465 115.632  0.00  0.00    -0.241 OA
ATOM     24  O   LIG d   1      -6.439  91.496 114.379  0.00  0.00    -0.241 OA
ENDBRANCH   3  22
TORSDOF 7
ENDMDL
MODEL 7
REMARK VINA RESULT:      -4.9     12.955     15.424
REMARK  7 active torsions:
REMARK  status: ('A' for Active; 'I' for Inactive)
REMARK    1  A    between atoms: C_2  and  C_3 
REMARK    2  A    between atoms: C_3  and  O_6 
REMARK    3  A    between atoms: C_3  and  C_4 
REMARK    4  A    between atoms: C_7  and  O_6 
REMARK    5  A    between atoms: C_9  and  C_10 
REMARK    6  A    between atoms: N_15  and  C_14 
REMARK    7  A    between atoms: N_20  and  C_19 
REMARK       I    between atoms: C_22  and  N_20 
ROOT
ATOM      1  C   LIG d   1       3.117  88.976 115.965  0.00  0.00     0.161 C 
ATOM      2  C   LIG d   1       3.604  90.121 116.616  0.00  0.00     0.016 C 
ATOM      3  C   LIG d   1       2.769  91.070 117.250  0.00  0.00     0.038 C 
ATOM      4  C   LIG d   1       1.392  90.857 117.409  0.00  0.00     0.028 C 
ATOM      5  C   LIG d   1       0.789  89.964 116.329  0.00  0.00    -0.047 C 
ATOM      6  C   LIG d   1       1.627  88.669 116.223  0.00  0.00     0.091 C 
ENDROOT
BRANCH   1   7
ATOM      7  O   LIG d   1       3.929  87.836 116.308  0.00  0.00    -0.368 OA
BRANCH   7   8
ATOM      8  C   LIG d   1       4.813  87.347 115.270  0.00  0.00     0.119 C 
BRANCH   8   9
ATOM      9  C   LIG d   1       4.408  88.039 113.954  0.00  0.00     0.028 C 
ATOM     10  C   LIG d   1       5.556  88.864 113.347  0.00  0.00     0.006 C 
ENDBRANCH   8   9
BRANCH   8  11
ATOM     11  C   LIG d   1       4.607  85.850 115.021  0.00  0.00     0.028 C 
ATOM     12  C   LIG d   1       4.232  85.534 113.565  0.00  0.00     0.006 C 
ENDBRANCH   8  11
ENDBRANCH   7   8
ENDBRANCH   1   7
BRANCH   6  13
ATOM     13  N   LIG d   1       1.155  87.777 115.133  0.00  0.00    -0.311 N 
ATOM     14  C   LIG d   1       0.883  86.485 115.309  0.00  0.00     0.210 C 
ATOM     15  C   LIG d   1       0.429  85.742 114.048  0.00  0.00     0.109 C 
ATOM     16  O   LIG d   1       0.942  85.891 116.396  0.00  0.00    -0.276 OA
ATOM     17  H   LIG d   1       1.049  88.184 114.224  0.00  0.00     0.149 HD
ENDBRANCH   6  13
BRANCH   5  18
ATOM     18  N   LIG d   1      -0.619  89.714 116.693  0.00  0.00     0.381 N 
ATOM     19  H   LIG d   1      -1.141  90.565 116.632  0.00  0.00    -0.090 HD
ATOM     20  H   LIG d   1      -0.656  89.388 117.643  0.00  0.00    -0.090 HD
ATOM     21  H   LIG d   1      -1.012  89.030 116.084  0.00  0.00    -0.090 HD
ENDBRANCH   5  18
BRANCH   3  22
ATOM     22  C   LIG d   1       3.306  92.266 117.700  0.00  0.00     0.382 C 
ATOM     23  O   LIG d   1       3.075  92.658 118.869  0.00  0.00    -0.241 OA
ATOM     24  O   LIG d   1       3.984  92.981 116.937  0.00  0.00    -0.241 OA
ENDBRANCH   3  22
TORSDOF 7
ENDMDL
MODEL 8
REMARK VINA RESULT:      -4.9     11.574     14.118
REMARK  7 active torsions:
REMARK  status: ('A' for Active; 'I' for Inactive)
REMARK    1  A    between atoms: C_2  and  C_3 
REMARK    2  A    between atoms: C_3  and  O_6 
REMARK    3  A    between atoms: C_3  and  C_4 
REMARK    4  A    between atoms: C_7  and  O_6 
REMARK    5  A    between atoms: C_9  and  C_10 
REMARK    6  A    between atoms: N_15  and  C_14 
REMARK    7  A    between atoms: N_20  and  C_19 
REMARK       I    between atoms: C_22  and  N_20 
ROOT
ATOM      1  C   LIG d   1       3.695  85.367 113.534  0.00  0.00     0.161 C 
ATOM      2  C   LIG d   1       4.198  86.529 112.927  0.00  0.00     0.016 C 
ATOM      3  C   LIG d   1       5.041  87.451 113.589  0.00  0.00     0.038 C 
ATOM      4  C   LIG d   1       5.564  87.194 114.865  0.00  0.00     0.028 C 
ATOM      5  C   LIG d   1       4.681  86.280 115.708  0.00  0.00    -0.047 C 
ATOM      6  C   LIG d   1       4.344  85.013 114.889  0.00  0.00     0.091 C 
ENDROOT
BRANCH   1   7
ATOM      7  O   LIG d   1       3.798  84.255 112.623  0.00  0.00    -0.368 OA
BRANCH   7   8
ATOM      8  C   LIG d   1       2.575  83.865 111.953  0.00  0.00     0.119 C 
BRANCH   8   9
ATOM      9  C   LIG d   1       1.397  84.388 112.797  0.00  0.00     0.028 C 
ATOM     10  C   LIG d   1       0.291  85.019 111.935  0.00  0.00     0.006 C 
ENDBRANCH   8   9
BRANCH   8  11
ATOM     11  C   LIG d   1       2.413  82.342 111.930  0.00  0.00     0.028 C 
ATOM     12  C   LIG d   1       1.827  81.786 113.237  0.00  0.00     0.006 C 
ENDBRANCH   8  11
ENDBRANCH   7   8
ENDBRANCH   1   7
BRANCH   6  13
ATOM     13  N   LIG d   1       3.415  84.103 115.608  0.00  0.00    -0.311 N 
ATOM     14  C   LIG d   1       3.814  83.011 116.257  0.00  0.00     0.210 C 
ATOM     15  C   LIG d   1       2.691  82.202 116.915  0.00  0.00     0.109 C 
ATOM     16  O   LIG d   1       4.995  82.652 116.378  0.00  0.00    -0.276 OA
ATOM     17  H   LIG d   1       2.441  84.336 115.588  0.00  0.00     0.149 HD
ENDBRANCH   6  13
BRANCH   5  18
ATOM     18  N   LIG d   1       5.409  85.984 116.956  0.00  0.00     0.381 N 
ATOM     19  H   LIG d   1       4.889  85.329 117.505  0.00  0.00    -0.090 HD
ATOM     20  H   LIG d   1       5.505  86.833 117.485  0.00  0.00    -0.090 HD
ATOM     21  H   LIG d   1       6.309  85.612 116.746  0.00  0.00    -0.090 HD
ENDBRANCH   5  18
BRANCH   3  22
ATOM     22  C   LIG d   1       5.337  88.666 112.988  0.00  0.00     0.382 C 
ATOM     23  O   LIG d   1       6.441  88.829 112.416  0.00  0.00    -0.241 OA
ATOM     24  O   LIG d   1       4.532  89.614 113.050  0.00  0.00    -0.241 OA
ENDBRANCH   3  22
TORSDOF 7
ENDMDL
MODEL 9
REMARK VINA RESULT:      -4.9     12.409     14.392
REMARK  7 active torsions:
REMARK  status: ('A' for Active; 'I' for Inactive)
REMARK    1  A    between atoms: C_2  and  C_3 
REMARK    2  A    between atoms: C_3  and  O_6 
REMARK    3  A    between atoms: C_3  and  C_4 
REMARK    4  A    between atoms: C_7  and  O_6 
REMARK    5  A    between atoms: C_9  and  C_10 
REMARK    6  A    between atoms: N_15  and  C_14 
REMARK    7  A    between atoms: N_20  and  C_19 
REMARK       I    between atoms: C_22  and  N_20 
ROOT
ATOM      1  C   LIG d   1       1.872  88.377 115.938  0.00  0.00     0.161 C 
ATOM      2  C   LIG d   1       0.598  88.649 116.465  0.00  0.00     0.016 C 
ATOM      3  C   LIG d   1       0.301  89.802 117.227  0.00  0.00     0.038 C 
ATOM      4  C   LIG d   1       1.226  90.844 117.387  0.00  0.00     0.028 C 
ATOM      5  C   LIG d   1       2.678  90.384 117.300  0.00  0.00    -0.047 C 
ATOM      6  C   LIG d   1       2.865  89.556 116.008  0.00  0.00     0.091 C 
ENDROOT
BRANCH   1   7
ATOM      7  O   LIG d   1       1.749  87.905 114.582  0.00  0.00    -0.368 OA
BRANCH   7   8
ATOM      8  C   LIG d   1       1.900  86.478 114.388  0.00  0.00     0.119 C 
BRANCH   8   9
ATOM      9  C   LIG d   1       2.866  86.271 113.205  0.00  0.00     0.028 C 
ATOM     10  C   LIG d   1       4.142  85.517 113.613  0.00  0.00     0.006 C 
ENDBRANCH   8   9
BRANCH   8  11
ATOM     11  C   LIG d   1       0.582  85.831 113.952  0.00  0.00     0.028 C 
ATOM     12  C   LIG d   1      -0.205  85.232 115.129  0.00  0.00     0.006 C 
ENDBRANCH   8  11
ENDBRANCH   7   8
ENDBRANCH   1   7
BRANCH   6  13
ATOM     13  N   LIG d   1       4.236  88.996 115.887  0.00  0.00    -0.311 N 
ATOM     14  C   LIG d   1       4.935  89.007 114.753  0.00  0.00     0.210 C 
ATOM     15  C   LIG d   1       6.321  88.360 114.842  0.00  0.00     0.109 C 
ATOM     16  O   LIG d   1       4.552  89.519 113.691  0.00  0.00    -0.276 OA
ATOM     17  H   LIG d   1       4.637  88.589 116.709  0.00  0.00     0.149 HD
ENDBRANCH   6  13
BRANCH   5  18
ATOM     18  N   LIG d   1       3.530  91.587 117.345  0.00  0.00     0.381 N 
ATOM     19  H   LIG d   1       3.263  92.218 116.616  0.00  0.00    -0.090 HD
ATOM     20  H   LIG d   1       4.485  91.314 117.192  0.00  0.00    -0.090 HD
ATOM     21  H   LIG d   1       3.443  92.034 118.231  0.00  0.00    -0.090 HD
ENDBRANCH   5  18
BRANCH   3  22
ATOM     22  C   LIG d   1      -0.922  89.903 117.873  0.00  0.00     0.382 C 
ATOM     23  O   LIG d   1      -1.981  89.641 117.253  0.00  0.00    -0.241 OA
ATOM     24  O   LIG d   1      -0.983  90.295 119.053  0.00  0.00    -0.241 OA
ENDBRANCH   3  22
TORSDOF 7
ENDMDL
