MODEL 1
REMARK VINA RESULT:      -6.3      0.000      0.000
REMARK  7 active torsions:
REMARK  status: ('A' for Active; 'I' for Inactive)
REMARK    1  A    between atoms: C_2  and  C_3 
REMARK    2  A    between atoms: C_3  and  O_6 
REMARK    3  A    between atoms: C_3  and  C_4 
REMARK    4  A    between atoms: C_7  and  O_6 
REMARK    5  A    between atoms: C_9  and  C_10 
REMARK    6  A    between atoms: N_15  and  C_14 
REMARK    7  A    between atoms: N_20  and  C_19 
REMARK       I    between atoms: C_22  and  N_20 
ROOT
ATOM      1  C   LIG d   1      -7.585  76.656 117.559  0.00  0.00     0.161 C 
ATOM      2  C   LIG d   1      -8.849  77.140 117.934  0.00  0.00     0.016 C 
ATOM      3  C   LIG d   1      -9.101  78.495 118.251  0.00  0.00     0.038 C 
ATOM      4  C   LIG d   1      -8.132  79.492 118.065  0.00  0.00     0.028 C 
ATOM      5  C   LIG d   1      -6.702  78.974 118.171  0.00  0.00    -0.047 C 
ATOM      6  C   LIG d   1      -6.542  77.749 117.243  0.00  0.00     0.091 C 
ENDROOT
BRANCH   1   7
ATOM      7  O   LIG d   1      -7.719  75.754 116.442  0.00  0.00    -0.368 OA
BRANCH   7   8
ATOM      8  C   LIG d   1      -7.835  74.347 116.770  0.00  0.00     0.119 C 
BRANCH   8   9
ATOM      9  C   LIG d   1      -6.888  73.574 115.833  0.00  0.00     0.028 C 
ATOM     10  C   LIG d   1      -6.005  74.509 114.989  0.00  0.00     0.006 C 
ENDBRANCH   8   9
BRANCH   8  11
ATOM     11  C   LIG d   1      -9.237  73.817 116.457  0.00  0.00     0.028 C 
ATOM     12  C   LIG d   1      -9.400  72.327 116.799  0.00  0.00     0.006 C 
ENDBRANCH   8  11
ENDBRANCH   7   8
ENDBRANCH   1   7
BRANCH   6  13
ATOM     13  N   LIG d   1      -5.195  77.129 117.350  0.00  0.00    -0.311 N 
ATOM     14  C   LIG d   1      -4.157  77.498 116.602  0.00  0.00     0.210 C 
ATOM     15  C   LIG d   1      -2.865  76.716 116.858  0.00  0.00     0.109 C 
ATOM     16  O   LIG d   1      -4.175  78.421 115.773  0.00  0.00    -0.276 OA
ATOM     17  H   LIG d   1      -5.083  76.393 118.019  0.00  0.00     0.149 HD
ENDBRANCH   6  13
BRANCH   5  18
ATOM     18  N   LIG d   1      -5.798  80.086 117.821  0.00  0.00     0.381 N 
ATOM     19  H   LIG d   1      -5.483  79.983 116.877  0.00  0.00    -0.090 HD
ATOM     20  H   LIG d   1      -4.997  80.057 118.426  0.00  0.00    -0.090 HD
ATOM     21  H   LIG d   1      -6.272  80.957 117.927  0.00  0.00    -0.090 HD
ENDBRANCH   5  18
BRANCH   3  22
ATOM     22  C   LIG d   1     -10.323  78.857 118.797  0.00  0.00     0.382 C 
ATOM     23  O   LIG d   1     -11.176  77.976 119.065  0.00  0.00    -0.241 OA
ATOM     24  O   LIG d   1     -10.601  80.057 118.984  0.00  0.00    -0.241 OA
ENDBRANCH   3  22
TORSDOF 7
ENDMDL
MODEL 2
REMARK VINA RESULT:      -6.3      1.273      2.043
REMARK  7 active torsions:
REMARK  status: ('A' for Active; 'I' for Inactive)
REMARK    1  A    between atoms: C_2  and  C_3 
REMARK    2  A    between atoms: C_3  and  O_6 
REMARK    3  A    between atoms: C_3  and  C_4 
REMARK    4  A    between atoms: C_7  and  O_6 
REMARK    5  A    between atoms: C_9  and  C_10 
REMARK    6  A    between atoms: N_15  and  C_14 
REMARK    7  A    between atoms: N_20  and  C_19 
REMARK       I    between atoms: C_22  and  N_20 
ROOT
ATOM      1  C   LIG d   1      -8.073  76.118 117.081  0.00  0.00     0.161 C 
ATOM      2  C   LIG d   1      -9.187  76.671 117.733  0.00  0.00     0.016 C 
ATOM      3  C   LIG d   1      -9.208  77.983 118.261  0.00  0.00     0.038 C 
ATOM      4  C   LIG d   1      -8.161  78.889 118.038  0.00  0.00     0.028 C 
ATOM      5  C   LIG d   1      -6.811  78.213 117.821  0.00  0.00    -0.047 C 
ATOM      6  C   LIG d   1      -6.961  77.130 116.729  0.00  0.00     0.091 C 
ENDROOT
BRANCH   1   7
ATOM      7  O   LIG d   1      -8.499  75.412 115.899  0.00  0.00    -0.368 OA
BRANCH   7   8
ATOM      8  C   LIG d   1      -8.490  73.966 115.982  0.00  0.00     0.119 C 
BRANCH   8   9
ATOM      9  C   LIG d   1      -9.727  73.542 116.797  0.00  0.00     0.028 C 
ATOM     10  C   LIG d   1      -9.688  72.056 117.192  0.00  0.00     0.006 C 
ENDBRANCH   8   9
BRANCH   8  11
ATOM     11  C   LIG d   1      -7.285  73.461 116.782  0.00  0.00     0.028 C 
ATOM     12  C   LIG d   1      -6.319  72.618 115.935  0.00  0.00     0.006 C 
ENDBRANCH   8  11
ENDBRANCH   7   8
ENDBRANCH   1   7
BRANCH   6  13
ATOM     13  N   LIG d   1      -5.706  76.363 116.515  0.00  0.00    -0.311 N 
ATOM     14  C   LIG d   1      -5.183  76.134 115.312  0.00  0.00     0.210 C 
ATOM     15  C   LIG d   1      -3.895  75.305 115.314  0.00  0.00     0.109 C 
ATOM     16  O   LIG d   1      -5.645  76.567 114.246  0.00  0.00    -0.276 OA
ATOM     17  H   LIG d   1      -5.248  76.001 117.329  0.00  0.00     0.149 HD
ENDBRANCH   6  13
BRANCH   5  18
ATOM     18  N   LIG d   1      -5.839  79.264 117.464  0.00  0.00     0.381 N 
ATOM     19  H   LIG d   1      -4.938  79.031 117.831  0.00  0.00    -0.090 HD
ATOM     20  H   LIG d   1      -6.132  80.132 117.876  0.00  0.00    -0.090 HD
ATOM     21  H   LIG d   1      -5.788  79.358 116.473  0.00  0.00    -0.090 HD
ENDBRANCH   5  18
BRANCH   3  22
ATOM     22  C   LIG d   1     -10.269  78.386 119.057  0.00  0.00     0.382 C 
ATOM     23  O   LIG d   1     -10.152  79.395 119.794  0.00  0.00    -0.241 OA
ATOM     24  O   LIG d   1     -11.327  77.729 119.081  0.00  0.00    -0.241 OA
ENDBRANCH   3  22
TORSDOF 7
ENDMDL
MODEL 3
REMARK VINA RESULT:      -6.2      8.912     12.863
REMARK  7 active torsions:
REMARK  status: ('A' for Active; 'I' for Inactive)
REMARK    1  A    between atoms: C_2  and  C_3 
REMARK    2  A    between atoms: C_3  and  O_6 
REMARK    3  A    between atoms: C_3  and  C_4 
REMARK    4  A    between atoms: C_7  and  O_6 
REMARK    5  A    between atoms: C_9  and  C_10 
REMARK    6  A    between atoms: N_15  and  C_14 
REMARK    7  A    between atoms: N_20  and  C_19 
REMARK       I    between atoms: C_22  and  N_20 
ROOT
ATOM      1  C   LIG d   1       1.421  81.436 112.331  0.00  0.00     0.161 C 
ATOM      2  C   LIG d   1       2.504  81.992 111.631  0.00  0.00     0.016 C 
ATOM      3  C   LIG d   1       2.761  81.735 110.264  0.00  0.00     0.038 C 
ATOM      4  C   LIG d   1       1.859  81.021 109.462  0.00  0.00     0.028 C 
ATOM      5  C   LIG d   1       1.013  80.021 110.243  0.00  0.00    -0.047 C 
ATOM      6  C   LIG d   1       0.364  80.744 111.445  0.00  0.00     0.091 C 
ENDROOT
BRANCH   1   7
ATOM      7  O   LIG d   1       0.802  82.445 113.154  0.00  0.00    -0.368 OA
BRANCH   7   8
ATOM      8  C   LIG d   1       1.010  83.819 112.743  0.00  0.00     0.119 C 
BRANCH   8   9
ATOM      9  C   LIG d   1       1.335  84.636 114.008  0.00  0.00     0.028 C 
ATOM     10  C   LIG d   1       2.070  85.948 113.686  0.00  0.00     0.006 C 
ENDBRANCH   8   9
BRANCH   8  11
ATOM     11  C   LIG d   1      -0.275  84.434 112.181  0.00  0.00     0.028 C 
ATOM     12  C   LIG d   1      -0.414  84.239 110.663  0.00  0.00     0.006 C 
ENDBRANCH   8  11
ENDBRANCH   7   8
ENDBRANCH   1   7
BRANCH   6  13
ATOM     13  N   LIG d   1      -0.413  79.819 112.311  0.00  0.00    -0.311 N 
ATOM     14  C   LIG d   1      -1.673  80.044 112.679  0.00  0.00     0.210 C 
ATOM     15  C   LIG d   1      -2.282  78.973 113.590  0.00  0.00     0.109 C 
ATOM     16  O   LIG d   1      -2.355  81.012 112.311  0.00  0.00    -0.276 OA
ATOM     17  H   LIG d   1       0.054  78.992 112.630  0.00  0.00     0.149 HD
ENDBRANCH   6  13
BRANCH   5  18
ATOM     18  N   LIG d   1       0.025  79.448 109.310  0.00  0.00     0.381 N 
ATOM     19  H   LIG d   1       0.344  79.558 108.369  0.00  0.00    -0.090 HD
ATOM     20  H   LIG d   1      -0.842  79.945 109.410  0.00  0.00    -0.090 HD
ATOM     21  H   LIG d   1      -0.113  78.482 109.511  0.00  0.00    -0.090 HD
ENDBRANCH   5  18
BRANCH   3  22
ATOM     22  C   LIG d   1       3.951  82.162 109.697  0.00  0.00     0.382 C 
ATOM     23  O   LIG d   1       4.797  81.322 109.306  0.00  0.00    -0.241 OA
ATOM     24  O   LIG d   1       4.210  83.378 109.611  0.00  0.00    -0.241 OA
ENDBRANCH   3  22
TORSDOF 7
ENDMDL
MODEL 4
REMARK VINA RESULT:      -6.0      3.738      6.435
REMARK  7 active torsions:
REMARK  status: ('A' for Active; 'I' for Inactive)
REMARK    1  A    between atoms: C_2  and  C_3 
REMARK    2  A    between atoms: C_3  and  O_6 
REMARK    3  A    between atoms: C_3  and  C_4 
REMARK    4  A    between atoms: C_7  and  O_6 
REMARK    5  A    between atoms: C_9  and  C_10 
REMARK    6  A    between atoms: N_15  and  C_14 
REMARK    7  A    between atoms: N_20  and  C_19 
REMARK       I    between atoms: C_22  and  N_20 
ROOT
ATOM      1  C   LIG d   1      -3.020  77.104 115.908  0.00  0.00     0.161 C 
ATOM      2  C   LIG d   1      -3.294  78.069 114.923  0.00  0.00     0.016 C 
ATOM      3  C   LIG d   1      -2.464  78.290 113.800  0.00  0.00     0.038 C 
ATOM      4  C   LIG d   1      -1.378  77.454 113.504  0.00  0.00     0.028 C 
ATOM      5  C   LIG d   1      -0.772  76.788 114.735  0.00  0.00    -0.047 C 
ATOM      6  C   LIG d   1      -1.900  76.107 115.543  0.00  0.00     0.091 C 
ENDROOT
BRANCH   1   7
ATOM      7  O   LIG d   1      -4.229  76.397 116.247  0.00  0.00    -0.368 OA
BRANCH   7   8
ATOM      8  C   LIG d   1      -5.207  76.259 115.187  0.00  0.00     0.119 C 
BRANCH   8   9
ATOM      9  C   LIG d   1      -6.601  76.444 115.815  0.00  0.00     0.028 C 
ATOM     10  C   LIG d   1      -6.581  77.406 117.015  0.00  0.00     0.006 C 
ENDBRANCH   8   9
BRANCH   8  11
ATOM     11  C   LIG d   1      -5.207  74.840 114.610  0.00  0.00     0.028 C 
ATOM     12  C   LIG d   1      -6.112  73.878 115.396  0.00  0.00     0.006 C 
ENDBRANCH   8  11
ENDBRANCH   7   8
ENDBRANCH   1   7
BRANCH   6  13
ATOM     13  N   LIG d   1      -1.406  75.504 116.808  0.00  0.00    -0.311 N 
ATOM     14  C   LIG d   1      -0.981  74.245 116.903  0.00  0.00     0.210 C 
ATOM     15  C   LIG d   1      -0.533  73.817 118.304  0.00  0.00     0.109 C 
ATOM     16  O   LIG d   1      -0.903  73.452 115.953  0.00  0.00    -0.276 OA
ATOM     17  H   LIG d   1      -1.406  76.087 117.622  0.00  0.00     0.149 HD
ENDBRANCH   6  13
BRANCH   5  18
ATOM     18  N   LIG d   1       0.258  75.841 114.268  0.00  0.00     0.381 N 
ATOM     19  H   LIG d   1      -0.143  75.202 113.611  0.00  0.00    -0.090 HD
ATOM     20  H   LIG d   1       0.595  75.314 115.055  0.00  0.00    -0.090 HD
ATOM     21  H   LIG d   1       1.010  76.337 113.844  0.00  0.00    -0.090 HD
ENDBRANCH   5  18
BRANCH   3  22
ATOM     22  C   LIG d   1      -2.696  79.385 112.980  0.00  0.00     0.382 C 
ATOM     23  O   LIG d   1      -2.304  79.369 111.788  0.00  0.00    -0.241 OA
ATOM     24  O   LIG d   1      -3.252  80.405 113.430  0.00  0.00    -0.241 OA
ENDBRANCH   3  22
TORSDOF 7
ENDMDL
MODEL 5
REMARK VINA RESULT:      -6.0      1.919      4.902
REMARK  7 active torsions:
REMARK  status: ('A' for Active; 'I' for Inactive)
REMARK    1  A    between atoms: C_2  and  C_3 
REMARK    2  A    between atoms: C_3  and  O_6 
REMARK    3  A    between atoms: C_3  and  C_4 
REMARK    4  A    between atoms: C_7  and  O_6 
REMARK    5  A    between atoms: C_9  and  C_10 
REMARK    6  A    between atoms: N_15  and  C_14 
REMARK    7  A    between atoms: N_20  and  C_19 
REMARK       I    between atoms: C_22  and  N_20 
ROOT
ATOM      1  C   LIG d   1      -6.935  76.432 116.543  0.00  0.00     0.161 C 
ATOM      2  C   LIG d   1      -5.866  75.844 115.846  0.00  0.00     0.016 C 
ATOM      3  C   LIG d   1      -4.569  76.403 115.796  0.00  0.00     0.038 C 
ATOM      4  C   LIG d   1      -4.210  77.517 116.569  0.00  0.00     0.028 C 
ATOM      5  C   LIG d   1      -5.386  78.435 116.890  0.00  0.00    -0.047 C 
ATOM      6  C   LIG d   1      -6.535  77.589 117.484  0.00  0.00     0.091 C 
ENDROOT
BRANCH   1   7
ATOM      7  O   LIG d   1      -7.658  75.421 117.272  0.00  0.00    -0.368 OA
BRANCH   7   8
ATOM      8  C   LIG d   1      -8.092  74.271 116.506  0.00  0.00     0.119 C 
BRANCH   8   9
ATOM      9  C   LIG d   1      -9.624  74.175 116.642  0.00  0.00     0.028 C 
ATOM     10  C   LIG d   1     -10.231  75.412 117.324  0.00  0.00     0.006 C 
ENDBRANCH   8   9
BRANCH   8  11
ATOM     11  C   LIG d   1      -7.550  72.968 117.102  0.00  0.00     0.028 C 
ATOM     12  C   LIG d   1      -7.205  71.921 116.031  0.00  0.00     0.006 C 
ENDBRANCH   8  11
ENDBRANCH   7   8
ENDBRANCH   1   7
BRANCH   6  13
ATOM     13  N   LIG d   1      -7.755  78.396 117.748  0.00  0.00    -0.311 N 
ATOM     14  C   LIG d   1      -7.952  79.079 118.874  0.00  0.00     0.210 C 
ATOM     15  C   LIG d   1      -9.286  79.827 118.951  0.00  0.00     0.109 C 
ATOM     16  O   LIG d   1      -7.135  79.162 119.803  0.00  0.00    -0.276 OA
ATOM     17  H   LIG d   1      -8.456  78.409 117.034  0.00  0.00     0.149 HD
ENDBRANCH   6  13
BRANCH   5  18
ATOM     18  N   LIG d   1      -4.898  79.477 117.813  0.00  0.00     0.381 N 
ATOM     19  H   LIG d   1      -5.303  79.344 118.718  0.00  0.00    -0.090 HD
ATOM     20  H   LIG d   1      -5.184  80.376 117.468  0.00  0.00    -0.090 HD
ATOM     21  H   LIG d   1      -3.905  79.438 117.877  0.00  0.00    -0.090 HD
ENDBRANCH   5  18
BRANCH   3  22
ATOM     22  C   LIG d   1      -3.624  75.869 114.933  0.00  0.00     0.382 C 
ATOM     23  O   LIG d   1      -2.875  74.940 115.320  0.00  0.00    -0.241 OA
ATOM     24  O   LIG d   1      -3.480  76.334 113.786  0.00  0.00    -0.241 OA
ENDBRANCH   3  22
TORSDOF 7
ENDMDL
MODEL 6
REMARK VINA RESULT:      -5.9     11.332     14.328
REMARK  7 active torsions:
REMARK  status: ('A' for Active; 'I' for Inactive)
REMARK    1  A    between atoms: C_2  and  C_3 
REMARK    2  A    between atoms: C_3  and  O_6 
REMARK    3  A    between atoms: C_3  and  C_4 
REMARK    4  A    between atoms: C_7  and  O_6 
REMARK    5  A    between atoms: C_9  and  C_10 
REMARK    6  A    between atoms: N_15  and  C_14 
REMARK    7  A    between atoms: N_20  and  C_19 
REMARK       I    between atoms: C_22  and  N_20 
ROOT
ATOM      1  C   LIG d   1       2.940  85.317 112.496  0.00  0.00     0.161 C 
ATOM      2  C   LIG d   1       3.512  86.554 112.838  0.00  0.00     0.016 C 
ATOM      3  C   LIG d   1       3.470  87.096 114.143  0.00  0.00     0.038 C 
ATOM      4  C   LIG d   1       2.982  86.363 115.235  0.00  0.00     0.028 C 
ATOM      5  C   LIG d   1       1.939  85.320 114.847  0.00  0.00    -0.047 C 
ATOM      6  C   LIG d   1       2.501  84.454 113.697  0.00  0.00     0.091 C 
ENDROOT
BRANCH   1   7
ATOM      7  O   LIG d   1       3.844  84.578 111.651  0.00  0.00    -0.368 OA
BRANCH   7   8
ATOM      8  C   LIG d   1       3.486  84.499 110.249  0.00  0.00     0.119 C 
BRANCH   8   9
ATOM      9  C   LIG d   1       2.022  84.960 110.119  0.00  0.00     0.028 C 
ATOM     10  C   LIG d   1       1.137  83.913 109.422  0.00  0.00     0.006 C 
ENDBRANCH   8   9
BRANCH   8  11
ATOM     11  C   LIG d   1       3.501  83.051 109.751  0.00  0.00     0.028 C 
ATOM     12  C   LIG d   1       4.784  82.300 110.141  0.00  0.00     0.006 C 
ENDBRANCH   8  11
ENDBRANCH   7   8
ENDBRANCH   1   7
BRANCH   6  13
ATOM     13  N   LIG d   1       1.512  83.462 113.199  0.00  0.00    -0.311 N 
ATOM     14  C   LIG d   1       1.809  82.185 112.964  0.00  0.00     0.210 C 
ATOM     15  C   LIG d   1       0.647  81.338 112.436  0.00  0.00     0.109 C 
ATOM     16  O   LIG d   1       2.916  81.666 113.173  0.00  0.00    -0.276 OA
ATOM     17  H   LIG d   1       0.581  83.790 113.032  0.00  0.00     0.149 HD
ENDBRANCH   6  13
BRANCH   5  18
ATOM     18  N   LIG d   1       1.619  84.539 116.056  0.00  0.00     0.381 N 
ATOM     19  H   LIG d   1       2.355  83.888 116.244  0.00  0.00    -0.090 HD
ATOM     20  H   LIG d   1       0.773  84.021 115.894  0.00  0.00    -0.090 HD
ATOM     21  H   LIG d   1       1.498  85.149 116.834  0.00  0.00    -0.090 HD
ENDBRANCH   5  18
BRANCH   3  22
ATOM     22  C   LIG d   1       3.885  88.402 114.358  0.00  0.00     0.382 C 
ATOM     23  O   LIG d   1       3.590  88.985 115.429  0.00  0.00    -0.241 OA
ATOM     24  O   LIG d   1       4.512  89.019 113.477  0.00  0.00    -0.241 OA
ENDBRANCH   3  22
TORSDOF 7
ENDMDL
MODEL 7
REMARK VINA RESULT:      -5.3      2.178      5.035
REMARK  7 active torsions:
REMARK  status: ('A' for Active; 'I' for Inactive)
REMARK    1  A    between atoms: C_2  and  C_3 
REMARK    2  A    between atoms: C_3  and  O_6 
REMARK    3  A    between atoms: C_3  and  C_4 
REMARK    4  A    between atoms: C_7  and  O_6 
REMARK    5  A    between atoms: C_9  and  C_10 
REMARK    6  A    between atoms: N_15  and  C_14 
REMARK    7  A    between atoms: N_20  and  C_19 
REMARK       I    between atoms: C_22  and  N_20 
ROOT
ATOM      1  C   LIG d   1      -5.707  76.444 116.301  0.00  0.00     0.161 C 
ATOM      2  C   LIG d   1      -6.277  75.210 115.945  0.00  0.00     0.016 C 
ATOM      3  C   LIG d   1      -7.587  74.824 116.309  0.00  0.00     0.038 C 
ATOM      4  C   LIG d   1      -8.477  75.714 116.930  0.00  0.00     0.028 C 
ATOM      5  C   LIG d   1      -7.779  76.790 117.756  0.00  0.00    -0.047 C 
ATOM      6  C   LIG d   1      -6.701  77.471 116.883  0.00  0.00     0.091 C 
ENDROOT
BRANCH   1   7
ATOM      7  O   LIG d   1      -5.011  77.005 115.171  0.00  0.00    -0.368 OA
BRANCH   7   8
ATOM      8  C   LIG d   1      -3.807  76.314 114.757  0.00  0.00     0.119 C 
BRANCH   8   9
ATOM      9  C   LIG d   1      -2.897  76.186 115.994  0.00  0.00     0.028 C 
ATOM     10  C   LIG d   1      -1.998  74.940 115.935  0.00  0.00     0.006 C 
ENDBRANCH   8   9
BRANCH   8  11
ATOM     11  C   LIG d   1      -3.006  77.144 113.749  0.00  0.00     0.028 C 
ATOM     12  C   LIG d   1      -2.381  78.401 114.375  0.00  0.00     0.006 C 
ENDBRANCH   8  11
ENDBRANCH   7   8
ENDBRANCH   1   7
BRANCH   6  13
ATOM     13  N   LIG d   1      -5.914  78.480 117.639  0.00  0.00    -0.311 N 
ATOM     14  C   LIG d   1      -6.326  79.730 117.842  0.00  0.00     0.210 C 
ATOM     15  C   LIG d   1      -5.353  80.612 118.630  0.00  0.00     0.109 C 
ATOM     16  O   LIG d   1      -7.419  80.183 117.471  0.00  0.00    -0.276 OA
ATOM     17  H   LIG d   1      -5.028  78.188 118.003  0.00  0.00     0.149 HD
ENDBRANCH   6  13
BRANCH   5  18
ATOM     18  N   LIG d   1      -8.814  77.727 118.232  0.00  0.00     0.381 N 
ATOM     19  H   LIG d   1      -9.685  77.526 117.782  0.00  0.00    -0.090 HD
ATOM     20  H   LIG d   1      -8.542  78.663 117.990  0.00  0.00    -0.090 HD
ATOM     21  H   LIG d   1      -8.917  77.648 119.220  0.00  0.00    -0.090 HD
ENDBRANCH   5  18
BRANCH   3  22
ATOM     22  C   LIG d   1      -8.006  73.521 116.088  0.00  0.00     0.382 C 
ATOM     23  O   LIG d   1      -9.221  73.226 116.197  0.00  0.00    -0.241 OA
ATOM     24  O   LIG d   1      -7.180  72.628 115.823  0.00  0.00    -0.241 OA
ENDBRANCH   3  22
TORSDOF 7
ENDMDL
MODEL 8
REMARK VINA RESULT:      -5.2     11.359     14.278
REMARK  7 active torsions:
REMARK  status: ('A' for Active; 'I' for Inactive)
REMARK    1  A    between atoms: C_2  and  C_3 
REMARK    2  A    between atoms: C_3  and  O_6 
REMARK    3  A    between atoms: C_3  and  C_4 
REMARK    4  A    between atoms: C_7  and  O_6 
REMARK    5  A    between atoms: C_9  and  C_10 
REMARK    6  A    between atoms: N_15  and  C_14 
REMARK    7  A    between atoms: N_20  and  C_19 
REMARK       I    between atoms: C_22  and  N_20 
ROOT
ATOM      1  C   LIG d   1       2.985  85.256 113.863  0.00  0.00     0.161 C 
ATOM      2  C   LIG d   1       3.424  86.586 113.758  0.00  0.00     0.016 C 
ATOM      3  C   LIG d   1       3.941  87.324 114.848  0.00  0.00     0.038 C 
ATOM      4  C   LIG d   1       4.196  86.727 116.092  0.00  0.00     0.028 C 
ATOM      5  C   LIG d   1       3.300  85.528 116.384  0.00  0.00    -0.047 C 
ATOM      6  C   LIG d   1       3.359  84.554 115.186  0.00  0.00     0.091 C 
ENDROOT
BRANCH   1   7
ATOM      7  O   LIG d   1       3.464  84.493 112.738  0.00  0.00    -0.368 OA
BRANCH   7   8
ATOM      8  C   LIG d   1       2.452  83.993 111.830  0.00  0.00     0.119 C 
BRANCH   8   9
ATOM      9  C   LIG d   1       2.724  82.491 111.616  0.00  0.00     0.028 C 
ATOM     10  C   LIG d   1       4.128  82.076 112.086  0.00  0.00     0.006 C 
ENDBRANCH   8   9
BRANCH   8  11
ATOM     11  C   LIG d   1       2.583  84.630 110.444  0.00  0.00     0.028 C 
ATOM     12  C   LIG d   1       2.232  83.659 109.306  0.00  0.00     0.006 C 
ENDBRANCH   8  11
ENDBRANCH   7   8
ENDBRANCH   1   7
BRANCH   6  13
ATOM     13  N   LIG d   1       2.445  83.394 115.353  0.00  0.00    -0.311 N 
ATOM     14  C   LIG d   1       2.871  82.145 115.533  0.00  0.00     0.210 C 
ATOM     15  C   LIG d   1       1.763  81.096 115.664  0.00  0.00     0.109 C 
ATOM     16  O   LIG d   1       4.062  81.811 115.630  0.00  0.00    -0.276 OA
ATOM     17  H   LIG d   1       1.462  83.579 115.319  0.00  0.00     0.149 HD
ENDBRANCH   6  13
BRANCH   5  18
ATOM     18  N   LIG d   1       3.765  84.922 117.646  0.00  0.00     0.381 N 
ATOM     19  H   LIG d   1       3.276  84.064 117.809  0.00  0.00    -0.090 HD
ATOM     20  H   LIG d   1       3.561  85.550 118.403  0.00  0.00    -0.090 HD
ATOM     21  H   LIG d   1       4.745  84.751 117.601  0.00  0.00    -0.090 HD
ENDBRANCH   5  18
BRANCH   3  22
ATOM     22  C   LIG d   1       4.171  88.684 114.710  0.00  0.00     0.382 C 
ATOM     23  O   LIG d   1       4.388  89.171 113.575  0.00  0.00    -0.241 OA
ATOM     24  O   LIG d   1       4.209  89.423 115.712  0.00  0.00    -0.241 OA
ENDBRANCH   3  22
TORSDOF 7
ENDMDL
MODEL 9
REMARK VINA RESULT:      -5.1     18.657     21.409
REMARK  7 active torsions:
REMARK  status: ('A' for Active; 'I' for Inactive)
REMARK    1  A    between atoms: C_2  and  C_3 
REMARK    2  A    between atoms: C_3  and  O_6 
REMARK    3  A    between atoms: C_3  and  C_4 
REMARK    4  A    between atoms: C_7  and  O_6 
REMARK    5  A    between atoms: C_9  and  C_10 
REMARK    6  A    between atoms: N_15  and  C_14 
REMARK    7  A    between atoms: N_20  and  C_19 
REMARK       I    between atoms: C_22  and  N_20 
ROOT
ATOM      1  C   LIG d   1     -26.191  86.192 113.031  0.00  0.00     0.161 C 
ATOM      2  C   LIG d   1     -25.000  86.922 113.182  0.00  0.00     0.016 C 
ATOM      3  C   LIG d   1     -23.814  86.372 113.721  0.00  0.00     0.038 C 
ATOM      4  C   LIG d   1     -23.694  85.005 114.007  0.00  0.00     0.028 C 
ATOM      5  C   LIG d   1     -25.023  84.337 114.345  0.00  0.00    -0.047 C 
ATOM      6  C   LIG d   1     -26.047  84.669 113.235  0.00  0.00     0.091 C 
ENDROOT
BRANCH   1   7
ATOM      7  O   LIG d   1     -26.776  86.472 111.744  0.00  0.00    -0.368 OA
BRANCH   7   8
ATOM      8  C   LIG d   1     -26.112  87.485 110.949  0.00  0.00     0.119 C 
BRANCH   8   9
ATOM      9  C   LIG d   1     -27.068  88.689 110.841  0.00  0.00     0.028 C 
ATOM     10  C   LIG d   1     -26.405  89.906 110.175  0.00  0.00     0.006 C 
ENDBRANCH   8   9
BRANCH   8  11
ATOM     11  C   LIG d   1     -25.895  87.009 109.509  0.00  0.00     0.028 C 
ATOM     12  C   LIG d   1     -25.586  85.507 109.418  0.00  0.00     0.006 C 
ENDBRANCH   8  11
ENDBRANCH   7   8
ENDBRANCH   1   7
BRANCH   6  13
ATOM     13  N   LIG d   1     -27.398  84.125 113.529  0.00  0.00    -0.311 N 
ATOM     14  C   LIG d   1     -27.862  82.992 113.005  0.00  0.00     0.210 C 
ATOM     15  C   LIG d   1     -29.289  82.622 113.425  0.00  0.00     0.109 C 
ATOM     16  O   LIG d   1     -27.216  82.242 112.258  0.00  0.00    -0.276 OA
ATOM     17  H   LIG d   1     -27.978  84.655 114.151  0.00  0.00     0.149 HD
ENDBRANCH   6  13
BRANCH   5  18
ATOM     18  N   LIG d   1     -24.773  82.891 114.486  0.00  0.00     0.381 N 
ATOM     19  H   LIG d   1     -23.985  82.627 113.928  0.00  0.00    -0.090 HD
ATOM     20  H   LIG d   1     -25.577  82.388 114.154  0.00  0.00    -0.090 HD
ATOM     21  H   LIG d   1     -24.602  82.666 115.442  0.00  0.00    -0.090 HD
ENDBRANCH   5  18
BRANCH   3  22
ATOM     22  C   LIG d   1     -22.744  87.204 114.015  0.00  0.00     0.382 C 
ATOM     23  O   LIG d   1     -22.903  88.181 114.786  0.00  0.00    -0.241 OA
ATOM     24  O   LIG d   1     -21.633  87.014 113.485  0.00  0.00    -0.241 OA
ENDBRANCH   3  22
TORSDOF 7
ENDMDL
