MODEL 1
REMARK VINA RESULT:      -6.6      0.000      0.000
REMARK  7 active torsions:
REMARK  status: ('A' for Active; 'I' for Inactive)
REMARK    1  A    between atoms: C_2  and  C_3 
REMARK    2  A    between atoms: C_3  and  O_6 
REMARK    3  A    between atoms: C_3  and  C_4 
REMARK    4  A    between atoms: C_7  and  O_6 
REMARK    5  A    between atoms: C_9  and  C_10 
REMARK    6  A    between atoms: N_15  and  C_14 
REMARK    7  A    between atoms: N_20  and  C_19 
REMARK       I    between atoms: C_22  and  N_20 
ROOT
ATOM      1  C   LIG d   1       1.489  83.938 109.194  0.00  0.00     0.161 C 
ATOM      2  C   LIG d   1       1.177  85.169 109.793  0.00  0.00     0.016 C 
ATOM      3  C   LIG d   1       0.326  85.296 110.915  0.00  0.00     0.038 C 
ATOM      4  C   LIG d   1      -0.154  84.177 111.611  0.00  0.00     0.028 C 
ATOM      5  C   LIG d   1      -0.276  82.929 110.743  0.00  0.00    -0.047 C 
ATOM      6  C   LIG d   1       1.064  82.697 110.008  0.00  0.00     0.091 C 
ENDROOT
BRANCH   1   7
ATOM      7  O   LIG d   1       2.899  83.883 108.896  0.00  0.00    -0.368 OA
BRANCH   7   8
ATOM      8  C   LIG d   1       3.757  83.403 109.960  0.00  0.00     0.119 C 
BRANCH   8   9
ATOM      9  C   LIG d   1       4.408  84.634 110.620  0.00  0.00     0.028 C 
ATOM     10  C   LIG d   1       3.987  84.805 112.089  0.00  0.00     0.006 C 
ENDBRANCH   8   9
BRANCH   8  11
ATOM     11  C   LIG d   1       4.921  82.576 109.407  0.00  0.00     0.028 C 
ATOM     12  C   LIG d   1       4.605  81.939 108.044  0.00  0.00     0.006 C 
ENDBRANCH   8  11
ENDBRANCH   7   8
ENDBRANCH   1   7
BRANCH   6  13
ATOM     13  N   LIG d   1       1.005  81.544 109.071  0.00  0.00    -0.311 N 
ATOM     14  C   LIG d   1       1.692  80.417 109.252  0.00  0.00     0.210 C 
ATOM     15  C   LIG d   1       1.503  79.362 108.157  0.00  0.00     0.109 C 
ATOM     16  O   LIG d   1       2.414  80.178 110.231  0.00  0.00    -0.276 OA
ATOM     17  H   LIG d   1       0.419  81.641 108.266  0.00  0.00     0.149 HD
ENDBRANCH   6  13
BRANCH   5  18
ATOM     18  N   LIG d   1      -0.654  81.808 111.623  0.00  0.00     0.381 N 
ATOM     19  H   LIG d   1       0.022  81.074 111.547  0.00  0.00    -0.090 HD
ATOM     20  H   LIG d   1      -1.544  81.449 111.328  0.00  0.00    -0.090 HD
ATOM     21  H   LIG d   1      -0.710  82.120 112.568  0.00  0.00    -0.090 HD
ENDBRANCH   5  18
BRANCH   3  22
ATOM     22  C   LIG d   1      -0.086  86.554 111.326  0.00  0.00     0.382 C 
ATOM     23  O   LIG d   1      -1.297  86.873 111.252  0.00  0.00    -0.241 OA
ATOM     24  O   LIG d   1       0.744  87.390 111.730  0.00  0.00    -0.241 OA
ENDBRANCH   3  22
TORSDOF 7
ENDMDL
MODEL 2
REMARK VINA RESULT:      -6.3      1.679      2.728
REMARK  7 active torsions:
REMARK  status: ('A' for Active; 'I' for Inactive)
REMARK    1  A    between atoms: C_2  and  C_3 
REMARK    2  A    between atoms: C_3  and  O_6 
REMARK    3  A    between atoms: C_3  and  C_4 
REMARK    4  A    between atoms: C_7  and  O_6 
REMARK    5  A    between atoms: C_9  and  C_10 
REMARK    6  A    between atoms: N_15  and  C_14 
REMARK    7  A    between atoms: N_20  and  C_19 
REMARK       I    between atoms: C_22  and  N_20 
ROOT
ATOM      1  C   LIG d   1       2.359  84.979 110.159  0.00  0.00     0.161 C 
ATOM      2  C   LIG d   1       1.383  85.762 110.796  0.00  0.00     0.016 C 
ATOM      3  C   LIG d   1       0.124  85.260 111.200  0.00  0.00     0.038 C 
ATOM      4  C   LIG d   1      -0.187  83.894 111.128  0.00  0.00     0.028 C 
ATOM      5  C   LIG d   1       0.572  83.157 110.031  0.00  0.00    -0.047 C 
ATOM      6  C   LIG d   1       2.081  83.461 110.173  0.00  0.00     0.091 C 
ENDROOT
BRANCH   1   7
ATOM      7  O   LIG d   1       3.655  85.256 110.726  0.00  0.00    -0.368 OA
BRANCH   7   8
ATOM      8  C   LIG d   1       3.658  85.888 112.030  0.00  0.00     0.119 C 
BRANCH   8   9
ATOM      9  C   LIG d   1       4.808  86.913 112.044  0.00  0.00     0.028 C 
ATOM     10  C   LIG d   1       4.798  87.788 113.309  0.00  0.00     0.006 C 
ENDBRANCH   8   9
BRANCH   8  11
ATOM     11  C   LIG d   1       3.997  84.883 113.135  0.00  0.00     0.028 C 
ATOM     12  C   LIG d   1       2.777  84.504 113.990  0.00  0.00     0.006 C 
ENDBRANCH   8  11
ENDBRANCH   7   8
ENDBRANCH   1   7
BRANCH   6  13
ATOM     13  N   LIG d   1       2.888  82.846 109.087  0.00  0.00    -0.311 N 
ATOM     14  C   LIG d   1       3.838  81.937 109.304  0.00  0.00     0.210 C 
ATOM     15  C   LIG d   1       4.563  81.447 108.047  0.00  0.00     0.109 C 
ATOM     16  O   LIG d   1       4.127  81.467 110.415  0.00  0.00    -0.276 OA
ATOM     17  H   LIG d   1       2.699  83.146 108.151  0.00  0.00     0.149 HD
ENDBRANCH   6  13
BRANCH   5  18
ATOM     18  N   LIG d   1       0.258  81.721 110.158  0.00  0.00     0.381 N 
ATOM     19  H   LIG d   1       0.220  81.301 109.251  0.00  0.00    -0.090 HD
ATOM     20  H   LIG d   1      -0.645  81.623 110.589  0.00  0.00    -0.090 HD
ATOM     21  H   LIG d   1       0.950  81.268 110.714  0.00  0.00    -0.090 HD
ENDBRANCH   5  18
BRANCH   3  22
ATOM     22  C   LIG d   1      -0.854  86.136 111.645  0.00  0.00     0.382 C 
ATOM     23  O   LIG d   1      -1.347  86.979 110.856  0.00  0.00    -0.241 OA
ATOM     24  O   LIG d   1      -1.219  86.124 112.836  0.00  0.00    -0.241 OA
ENDBRANCH   3  22
TORSDOF 7
ENDMDL
MODEL 3
REMARK VINA RESULT:      -6.1      2.574      4.832
REMARK  7 active torsions:
REMARK  status: ('A' for Active; 'I' for Inactive)
REMARK    1  A    between atoms: C_2  and  C_3 
REMARK    2  A    between atoms: C_3  and  O_6 
REMARK    3  A    between atoms: C_3  and  C_4 
REMARK    4  A    between atoms: C_7  and  O_6 
REMARK    5  A    between atoms: C_9  and  C_10 
REMARK    6  A    between atoms: N_15  and  C_14 
REMARK    7  A    between atoms: N_20  and  C_19 
REMARK       I    between atoms: C_22  and  N_20 
ROOT
ATOM      1  C   LIG d   1       1.448  81.366 111.778  0.00  0.00     0.161 C 
ATOM      2  C   LIG d   1       2.564  81.905 111.118  0.00  0.00     0.016 C 
ATOM      3  C   LIG d   1       2.744  81.844 109.717  0.00  0.00     0.038 C 
ATOM      4  C   LIG d   1       1.739  81.369 108.860  0.00  0.00     0.028 C 
ATOM      5  C   LIG d   1       0.810  80.355 109.520  0.00  0.00    -0.047 C 
ATOM      6  C   LIG d   1       0.289  80.943 110.851  0.00  0.00     0.091 C 
ENDROOT
BRANCH   1   7
ATOM      7  O   LIG d   1       0.978  82.291 112.778  0.00  0.00    -0.368 OA
BRANCH   7   8
ATOM      8  C   LIG d   1       1.168  83.697 112.484  0.00  0.00     0.119 C 
BRANCH   8   9
ATOM      9  C   LIG d   1       1.503  84.406 113.811  0.00  0.00     0.028 C 
ATOM     10  C   LIG d   1       1.904  85.877 113.605  0.00  0.00     0.006 C 
ENDBRANCH   8   9
BRANCH   8  11
ATOM     11  C   LIG d   1      -0.132  84.345 111.996  0.00  0.00     0.028 C 
ATOM     12  C   LIG d   1      -0.105  84.675 110.495  0.00  0.00     0.006 C 
ENDBRANCH   8  11
ENDBRANCH   7   8
ENDBRANCH   1   7
BRANCH   6  13
ATOM     13  N   LIG d   1      -0.560  79.982 111.602  0.00  0.00    -0.311 N 
ATOM     14  C   LIG d   1      -1.696  80.324 112.206  0.00  0.00     0.210 C 
ATOM     15  C   LIG d   1      -2.406  79.183 112.941  0.00  0.00     0.109 C 
ATOM     16  O   LIG d   1      -2.200  81.457 112.176  0.00  0.00    -0.276 OA
ATOM     17  H   LIG d   1      -0.242  79.033 111.650  0.00  0.00     0.149 HD
ENDBRANCH   6  13
BRANCH   5  18
ATOM     18  N   LIG d   1      -0.268  80.050 108.561  0.00  0.00     0.381 N 
ATOM     19  H   LIG d   1      -0.550  79.095 108.662  0.00  0.00    -0.090 HD
ATOM     20  H   LIG d   1       0.080  80.179 107.628  0.00  0.00    -0.090 HD
ATOM     21  H   LIG d   1      -1.046  80.651 108.720  0.00  0.00    -0.090 HD
ENDBRANCH   5  18
BRANCH   3  22
ATOM     22  C   LIG d   1       3.956  82.224 109.162  0.00  0.00     0.382 C 
ATOM     23  O   LIG d   1       4.291  81.794 108.032  0.00  0.00    -0.241 OA
ATOM     24  O   LIG d   1       4.739  82.958 109.796  0.00  0.00    -0.241 OA
ENDBRANCH   3  22
TORSDOF 7
ENDMDL
MODEL 4
REMARK VINA RESULT:      -6.0      2.675      4.299
REMARK  7 active torsions:
REMARK  status: ('A' for Active; 'I' for Inactive)
REMARK    1  A    between atoms: C_2  and  C_3 
REMARK    2  A    between atoms: C_3  and  O_6 
REMARK    3  A    between atoms: C_3  and  C_4 
REMARK    4  A    between atoms: C_7  and  O_6 
REMARK    5  A    between atoms: C_9  and  C_10 
REMARK    6  A    between atoms: N_15  and  C_14 
REMARK    7  A    between atoms: N_20  and  C_19 
REMARK       I    between atoms: C_22  and  N_20 
ROOT
ATOM      1  C   LIG d   1       0.463  82.633 111.393  0.00  0.00     0.161 C 
ATOM      2  C   LIG d   1      -0.689  82.336 112.140  0.00  0.00     0.016 C 
ATOM      3  C   LIG d   1      -1.304  81.063 112.149  0.00  0.00     0.038 C 
ATOM      4  C   LIG d   1      -0.719  79.952 111.523  0.00  0.00     0.028 C 
ATOM      5  C   LIG d   1       0.172  80.322 110.342  0.00  0.00    -0.047 C 
ATOM      6  C   LIG d   1       1.179  81.405 110.793  0.00  0.00     0.091 C 
ENDROOT
BRANCH   1   7
ATOM      7  O   LIG d   1       1.379  83.406 112.193  0.00  0.00    -0.368 OA
BRANCH   7   8
ATOM      8  C   LIG d   1       1.778  84.687 111.647  0.00  0.00     0.119 C 
BRANCH   8   9
ATOM      9  C   LIG d   1       3.212  84.972 112.135  0.00  0.00     0.028 C 
ATOM     10  C   LIG d   1       4.210  85.113 110.973  0.00  0.00     0.006 C 
ENDBRANCH   8   9
BRANCH   8  11
ATOM     11  C   LIG d   1       0.923  85.825 112.212  0.00  0.00     0.028 C 
ATOM     12  C   LIG d   1      -0.234  86.220 111.282  0.00  0.00     0.006 C 
ENDBRANCH   8  11
ENDBRANCH   7   8
ENDBRANCH   1   7
BRANCH   6  13
ATOM     13  N   LIG d   1       2.033  81.884 109.675  0.00  0.00    -0.311 N 
ATOM     14  C   LIG d   1       3.356  81.727 109.644  0.00  0.00     0.210 C 
ATOM     15  C   LIG d   1       4.048  82.313 108.409  0.00  0.00     0.109 C 
ATOM     16  O   LIG d   1       4.017  81.129 110.506  0.00  0.00    -0.276 OA
ATOM     17  H   LIG d   1       1.575  82.353 108.919  0.00  0.00     0.149 HD
ENDBRANCH   6  13
BRANCH   5  18
ATOM     18  N   LIG d   1       0.825  79.085 109.872  0.00  0.00     0.381 N 
ATOM     19  H   LIG d   1       1.056  79.172 108.902  0.00  0.00    -0.090 HD
ATOM     20  H   LIG d   1       0.183  78.319 109.977  0.00  0.00    -0.090 HD
ATOM     21  H   LIG d   1       1.650  78.912 110.403  0.00  0.00    -0.090 HD
ENDBRANCH   5  18
BRANCH   3  22
ATOM     22  C   LIG d   1      -2.541  80.902 112.755  0.00  0.00     0.382 C 
ATOM     23  O   LIG d   1      -3.054  79.760 112.838  0.00  0.00    -0.241 OA
ATOM     24  O   LIG d   1      -3.170  81.889 113.180  0.00  0.00    -0.241 OA
ENDBRANCH   3  22
TORSDOF 7
ENDMDL
MODEL 5
REMARK VINA RESULT:      -6.0      2.623      4.893
REMARK  7 active torsions:
REMARK  status: ('A' for Active; 'I' for Inactive)
REMARK    1  A    between atoms: C_2  and  C_3 
REMARK    2  A    between atoms: C_3  and  O_6 
REMARK    3  A    between atoms: C_3  and  C_4 
REMARK    4  A    between atoms: C_7  and  O_6 
REMARK    5  A    between atoms: C_9  and  C_10 
REMARK    6  A    between atoms: N_15  and  C_14 
REMARK    7  A    between atoms: N_20  and  C_19 
REMARK       I    between atoms: C_22  and  N_20 
ROOT
ATOM      1  C   LIG d   1       2.536  82.371 111.932  0.00  0.00     0.161 C 
ATOM      2  C   LIG d   1       1.561  81.368 112.055  0.00  0.00     0.016 C 
ATOM      3  C   LIG d   1       0.181  81.637 112.204  0.00  0.00     0.038 C 
ATOM      4  C   LIG d   1      -0.337  82.936 112.087  0.00  0.00     0.028 C 
ATOM      5  C   LIG d   1       0.662  84.023 112.468  0.00  0.00    -0.047 C 
ATOM      6  C   LIG d   1       1.978  83.789 111.691  0.00  0.00     0.091 C 
ENDROOT
BRANCH   1   7
ATOM      7  O   LIG d   1       3.472  82.019 110.894  0.00  0.00    -0.368 OA
BRANCH   7   8
ATOM      8  C   LIG d   1       2.897  81.564 109.644  0.00  0.00     0.119 C 
BRANCH   8   9
ATOM      9  C   LIG d   1       3.618  80.261 109.249  0.00  0.00     0.028 C 
ATOM     10  C   LIG d   1       2.637  79.113 108.958  0.00  0.00     0.006 C 
ENDBRANCH   8   9
BRANCH   8  11
ATOM     11  C   LIG d   1       3.187  82.549 108.507  0.00  0.00     0.028 C 
ATOM     12  C   LIG d   1       1.942  83.338 108.071  0.00  0.00     0.006 C 
ENDBRANCH   8  11
ENDBRANCH   7   8
ENDBRANCH   1   7
BRANCH   6  13
ATOM     13  N   LIG d   1       3.038  84.760 112.068  0.00  0.00    -0.311 N 
ATOM     14  C   LIG d   1       3.249  85.904 111.419  0.00  0.00     0.210 C 
ATOM     15  C   LIG d   1       4.406  86.750 111.959  0.00  0.00     0.109 C 
ATOM     16  O   LIG d   1       2.567  86.313 110.467  0.00  0.00    -0.276 OA
ATOM     17  H   LIG d   1       3.618  84.522 112.848  0.00  0.00     0.149 HD
ENDBRANCH   6  13
BRANCH   5  18
ATOM     18  N   LIG d   1       0.038  85.326 112.169  0.00  0.00     0.381 N 
ATOM     19  H   LIG d   1      -0.868  85.372 112.591  0.00  0.00    -0.090 HD
ATOM     20  H   LIG d   1      -0.073  85.413 111.174  0.00  0.00    -0.090 HD
ATOM     21  H   LIG d   1       0.610  86.065 112.512  0.00  0.00    -0.090 HD
ENDBRANCH   5  18
BRANCH   3  22
ATOM     22  C   LIG d   1      -0.691  80.605 112.512  0.00  0.00     0.382 C 
ATOM     23  O   LIG d   1      -1.220  79.935 111.592  0.00  0.00    -0.241 OA
ATOM     24  O   LIG d   1      -0.992  80.364 113.697  0.00  0.00    -0.241 OA
ENDBRANCH   3  22
TORSDOF 7
ENDMDL
MODEL 6
REMARK VINA RESULT:      -5.7      2.199      3.577
REMARK  7 active torsions:
REMARK  status: ('A' for Active; 'I' for Inactive)
REMARK    1  A    between atoms: C_2  and  C_3 
REMARK    2  A    between atoms: C_3  and  O_6 
REMARK    3  A    between atoms: C_3  and  C_4 
REMARK    4  A    between atoms: C_7  and  O_6 
REMARK    5  A    between atoms: C_9  and  C_10 
REMARK    6  A    between atoms: N_15  and  C_14 
REMARK    7  A    between atoms: N_20  and  C_19 
REMARK       I    between atoms: C_22  and  N_20 
ROOT
ATOM      1  C   LIG d   1       1.166  83.920 110.712  0.00  0.00     0.161 C 
ATOM      2  C   LIG d   1       2.169  84.900 110.637  0.00  0.00     0.016 C 
ATOM      3  C   LIG d   1       2.853  85.402 111.768  0.00  0.00     0.038 C 
ATOM      4  C   LIG d   1       2.685  84.843 113.044  0.00  0.00     0.028 C 
ATOM      5  C   LIG d   1       1.318  84.198 113.247  0.00  0.00    -0.047 C 
ATOM      6  C   LIG d   1       1.047  83.220 112.082  0.00  0.00     0.091 C 
ENDROOT
BRANCH   1   7
ATOM      7  O   LIG d   1       1.355  82.946 109.666  0.00  0.00    -0.368 OA
BRANCH   7   8
ATOM      8  C   LIG d   1       2.480  82.047 109.829  0.00  0.00     0.119 C 
BRANCH   8   9
ATOM      9  C   LIG d   1       3.354  82.166 108.565  0.00  0.00     0.028 C 
ATOM     10  C   LIG d   1       4.825  82.471 108.896  0.00  0.00     0.006 C 
ENDBRANCH   8   9
BRANCH   8  11
ATOM     11  C   LIG d   1       2.023  80.586 109.870  0.00  0.00     0.028 C 
ATOM     12  C   LIG d   1       0.684  80.359 109.151  0.00  0.00     0.006 C 
ENDBRANCH   8  11
ENDBRANCH   7   8
ENDBRANCH   1   7
BRANCH   6  13
ATOM     13  N   LIG d   1      -0.306  82.608 112.158  0.00  0.00    -0.311 N 
ATOM     14  C   LIG d   1      -0.534  81.392 112.652  0.00  0.00     0.210 C 
ATOM     15  C   LIG d   1      -1.999  80.945 112.619  0.00  0.00     0.109 C 
ATOM     16  O   LIG d   1       0.334  80.654 113.143  0.00  0.00    -0.276 OA
ATOM     17  H   LIG d   1      -1.072  83.151 111.810  0.00  0.00     0.149 HD
ENDBRANCH   6  13
BRANCH   5  18
ATOM     18  N   LIG d   1       1.329  83.538 114.566  0.00  0.00     0.381 N 
ATOM     19  H   LIG d   1       0.538  83.837 115.101  0.00  0.00    -0.090 HD
ATOM     20  H   LIG d   1       2.162  83.807 115.058  0.00  0.00    -0.090 HD
ATOM     21  H   LIG d   1       1.307  82.548 114.452  0.00  0.00    -0.090 HD
ENDBRANCH   5  18
BRANCH   3  22
ATOM     22  C   LIG d   1       3.688  86.500 111.635  0.00  0.00     0.382 C 
ATOM     23  O   LIG d   1       4.845  86.356 111.170  0.00  0.00    -0.241 OA
ATOM     24  O   LIG d   1       3.316  87.627 112.016  0.00  0.00    -0.241 OA
ENDBRANCH   3  22
TORSDOF 7
ENDMDL
MODEL 7
REMARK VINA RESULT:      -5.5      2.588      5.171
REMARK  7 active torsions:
REMARK  status: ('A' for Active; 'I' for Inactive)
REMARK    1  A    between atoms: C_2  and  C_3 
REMARK    2  A    between atoms: C_3  and  O_6 
REMARK    3  A    between atoms: C_3  and  C_4 
REMARK    4  A    between atoms: C_7  and  O_6 
REMARK    5  A    between atoms: C_9  and  C_10 
REMARK    6  A    between atoms: N_15  and  C_14 
REMARK    7  A    between atoms: N_20  and  C_19 
REMARK       I    between atoms: C_22  and  N_20 
ROOT
ATOM      1  C   LIG d   1       2.997  83.201 111.037  0.00  0.00     0.161 C 
ATOM      2  C   LIG d   1       2.313  82.425 110.087  0.00  0.00     0.016 C 
ATOM      3  C   LIG d   1       1.311  81.487 110.425  0.00  0.00     0.038 C 
ATOM      4  C   LIG d   1       0.816  81.369 111.732  0.00  0.00     0.028 C 
ATOM      5  C   LIG d   1       1.826  81.770 112.801  0.00  0.00    -0.047 C 
ATOM      6  C   LIG d   1       2.393  83.167 112.456  0.00  0.00     0.091 C 
ENDROOT
BRANCH   1   7
ATOM      7  O   LIG d   1       3.105  84.561 110.571  0.00  0.00    -0.368 OA
BRANCH   7   8
ATOM      8  C   LIG d   1       2.023  85.450 110.944  0.00  0.00     0.119 C 
BRANCH   8   9
ATOM      9  C   LIG d   1       1.270  85.829 109.654  0.00  0.00     0.028 C 
ATOM     10  C   LIG d   1      -0.257  85.799 109.836  0.00  0.00     0.006 C 
ENDBRANCH   8   9
BRANCH   8  11
ATOM     11  C   LIG d   1       2.556  86.771 111.506  0.00  0.00     0.028 C 
ATOM     12  C   LIG d   1       4.059  86.720 111.825  0.00  0.00     0.006 C 
ENDBRANCH   8  11
ENDBRANCH   7   8
ENDBRANCH   1   7
BRANCH   6  13
ATOM     13  N   LIG d   1       3.451  83.599 113.406  0.00  0.00    -0.311 N 
ATOM     14  C   LIG d   1       3.210  84.349 114.480  0.00  0.00     0.210 C 
ATOM     15  C   LIG d   1       4.446  84.699 115.315  0.00  0.00     0.109 C 
ATOM     16  O   LIG d   1       2.086  84.732 114.838  0.00  0.00    -0.276 OA
ATOM     17  H   LIG d   1       4.388  83.307 113.209  0.00  0.00     0.149 HD
ENDBRANCH   6  13
BRANCH   5  18
ATOM     18  N   LIG d   1       1.136  81.732 114.104  0.00  0.00     0.381 N 
ATOM     19  H   LIG d   1       1.808  81.652 114.841  0.00  0.00    -0.090 HD
ATOM     20  H   LIG d   1       0.540  80.924 114.132  0.00  0.00    -0.090 HD
ATOM     21  H   LIG d   1       0.593  82.558 114.227  0.00  0.00    -0.090 HD
ENDBRANCH   5  18
BRANCH   3  22
ATOM     22  C   LIG d   1       0.822  80.625 109.455  0.00  0.00     0.382 C 
ATOM     23  O   LIG d   1      -0.268  80.030 109.637  0.00  0.00    -0.241 OA
ATOM     24  O   LIG d   1       1.477  80.401 108.420  0.00  0.00    -0.241 OA
ENDBRANCH   3  22
TORSDOF 7
ENDMDL
MODEL 8
REMARK VINA RESULT:      -5.2      2.524      4.363
REMARK  7 active torsions:
REMARK  status: ('A' for Active; 'I' for Inactive)
REMARK    1  A    between atoms: C_2  and  C_3 
REMARK    2  A    between atoms: C_3  and  O_6 
REMARK    3  A    between atoms: C_3  and  C_4 
REMARK    4  A    between atoms: C_7  and  O_6 
REMARK    5  A    between atoms: C_9  and  C_10 
REMARK    6  A    between atoms: N_15  and  C_14 
REMARK    7  A    between atoms: N_20  and  C_19 
REMARK       I    between atoms: C_22  and  N_20 
ROOT
ATOM      1  C   LIG d   1       0.739  82.550 110.098  0.00  0.00     0.161 C 
ATOM      2  C   LIG d   1      -0.489  82.272 110.721  0.00  0.00     0.016 C 
ATOM      3  C   LIG d   1      -0.595  81.694 112.007  0.00  0.00     0.038 C 
ATOM      4  C   LIG d   1       0.527  81.493 112.824  0.00  0.00     0.028 C 
ATOM      5  C   LIG d   1       1.820  81.291 112.040  0.00  0.00    -0.047 C 
ATOM      6  C   LIG d   1       1.972  82.441 111.019  0.00  0.00     0.091 C 
ENDROOT
BRANCH   1   7
ATOM      7  O   LIG d   1       0.689  83.852 109.480  0.00  0.00    -0.368 OA
BRANCH   7   8
ATOM      8  C   LIG d   1       0.669  84.985 110.382  0.00  0.00     0.119 C 
BRANCH   8   9
ATOM      9  C   LIG d   1      -0.610  85.792 110.085  0.00  0.00     0.028 C 
ATOM     10  C   LIG d   1      -0.999  86.723 111.245  0.00  0.00     0.006 C 
ENDBRANCH   8   9
BRANCH   8  11
ATOM     11  C   LIG d   1       1.829  85.944 110.097  0.00  0.00     0.028 C 
ATOM     12  C   LIG d   1       2.616  86.319 111.363  0.00  0.00     0.006 C 
ENDBRANCH   8  11
ENDBRANCH   7   8
ENDBRANCH   1   7
BRANCH   6  13
ATOM     13  N   LIG d   1       3.167  82.275 110.152  0.00  0.00    -0.311 N 
ATOM     14  C   LIG d   1       4.345  82.840 110.411  0.00  0.00     0.210 C 
ATOM     15  C   LIG d   1       5.440  82.556 109.378  0.00  0.00     0.109 C 
ATOM     16  O   LIG d   1       4.596  83.522 111.416  0.00  0.00    -0.276 OA
ATOM     17  H   LIG d   1       3.061  81.711 109.332  0.00  0.00     0.149 HD
ENDBRANCH   6  13
BRANCH   5  18
ATOM     18  N   LIG d   1       2.927  81.231 113.013  0.00  0.00     0.381 N 
ATOM     19  H   LIG d   1       3.461  80.398 112.868  0.00  0.00    -0.090 HD
ATOM     20  H   LIG d   1       2.543  81.202 113.941  0.00  0.00    -0.090 HD
ATOM     21  H   LIG d   1       3.512  82.031 112.913  0.00  0.00    -0.090 HD
ENDBRANCH   5  18
BRANCH   3  22
ATOM     22  C   LIG d   1      -1.832  81.273 112.472  0.00  0.00     0.382 C 
ATOM     23  O   LIG d   1      -2.215  80.097 112.258  0.00  0.00    -0.241 OA
ATOM     24  O   LIG d   1      -2.588  82.067 113.063  0.00  0.00    -0.241 OA
ENDBRANCH   3  22
TORSDOF 7
ENDMDL
MODEL 9
REMARK VINA RESULT:      -5.2      2.666      4.886
REMARK  7 active torsions:
REMARK  status: ('A' for Active; 'I' for Inactive)
REMARK    1  A    between atoms: C_2  and  C_3 
REMARK    2  A    between atoms: C_3  and  O_6 
REMARK    3  A    between atoms: C_3  and  C_4 
REMARK    4  A    between atoms: C_7  and  O_6 
REMARK    5  A    between atoms: C_9  and  C_10 
REMARK    6  A    between atoms: N_15  and  C_14 
REMARK    7  A    between atoms: N_20  and  C_19 
REMARK       I    between atoms: C_22  and  N_20 
ROOT
ATOM      1  C   LIG d   1       2.992  83.328 112.214  0.00  0.00     0.161 C 
ATOM      2  C   LIG d   1       3.504  83.028 110.941  0.00  0.00     0.016 C 
ATOM      3  C   LIG d   1       2.980  82.009 110.112  0.00  0.00     0.038 C 
ATOM      4  C   LIG d   1       1.805  81.317 110.440  0.00  0.00     0.028 C 
ATOM      5  C   LIG d   1       1.548  81.237 111.941  0.00  0.00    -0.047 C 
ATOM      6  C   LIG d   1       1.641  82.658 112.542  0.00  0.00     0.091 C 
ENDROOT
BRANCH   1   7
ATOM      7  O   LIG d   1       2.896  84.756 112.378  0.00  0.00    -0.368 OA
BRANCH   7   8
ATOM      8  C   LIG d   1       3.264  85.556 111.228  0.00  0.00     0.119 C 
BRANCH   8   9
ATOM      9  C   LIG d   1       4.428  86.473 111.654  0.00  0.00     0.028 C 
ATOM     10  C   LIG d   1       4.155  87.184 112.989  0.00  0.00     0.006 C 
ENDBRANCH   8   9
BRANCH   8  11
ATOM     11  C   LIG d   1       2.131  86.502 110.821  0.00  0.00     0.028 C 
ATOM     12  C   LIG d   1       1.249  85.929 109.701  0.00  0.00     0.006 C 
ENDBRANCH   8  11
ENDBRANCH   7   8
ENDBRANCH   1   7
BRANCH   6  13
ATOM     13  N   LIG d   1       1.485  82.660 114.020  0.00  0.00    -0.311 N 
ATOM     14  C   LIG d   1       2.288  81.987 114.842  0.00  0.00     0.210 C 
ATOM     15  C   LIG d   1       1.940  82.108 116.329  0.00  0.00     0.109 C 
ATOM     16  O   LIG d   1       3.276  81.328 114.484  0.00  0.00    -0.276 OA
ATOM     17  H   LIG d   1       0.728  83.195 114.399  0.00  0.00     0.149 HD
ENDBRANCH   6  13
BRANCH   5  18
ATOM     18  N   LIG d   1       0.225  80.613 112.134  0.00  0.00     0.381 N 
ATOM     19  H   LIG d   1      -0.274  80.603 111.267  0.00  0.00    -0.090 HD
ATOM     20  H   LIG d   1      -0.299  81.161 112.793  0.00  0.00    -0.090 HD
ATOM     21  H   LIG d   1       0.334  79.683 112.474  0.00  0.00    -0.090 HD
ENDBRANCH   5  18
BRANCH   3  22
ATOM     22  C   LIG d   1       3.658  81.646 108.958  0.00  0.00     0.382 C 
ATOM     23  O   LIG d   1       3.544  82.341 107.919  0.00  0.00    -0.241 OA
ATOM     24  O   LIG d   1       4.347  80.609 108.929  0.00  0.00    -0.241 OA
ENDBRANCH   3  22
TORSDOF 7
ENDMDL
