MODEL 1
REMARK VINA RESULT:      -6.8      0.000      0.000
REMARK  7 active torsions:
REMARK  status: ('A' for Active; 'I' for Inactive)
REMARK    1  A    between atoms: C_2  and  C_3 
REMARK    2  A    between atoms: C_3  and  O_6 
REMARK    3  A    between atoms: C_3  and  C_4 
REMARK    4  A    between atoms: C_7  and  O_6 
REMARK    5  A    between atoms: C_9  and  C_10 
REMARK    6  A    between atoms: N_15  and  C_14 
REMARK    7  A    between atoms: N_20  and  C_19 
REMARK       I    between atoms: C_22  and  N_20 
ROOT
ATOM      1  C   LIG d   1       1.307  84.191 109.543  0.00  0.00     0.161 C 
ATOM      2  C   LIG d   1       1.010  85.485 110.001  0.00  0.00     0.016 C 
ATOM      3  C   LIG d   1       0.077  85.751 111.030  0.00  0.00     0.038 C 
ATOM      4  C   LIG d   1      -0.514  84.723 111.779  0.00  0.00     0.028 C 
ATOM      5  C   LIG d   1      -0.627  83.407 111.017  0.00  0.00    -0.047 C 
ATOM      6  C   LIG d   1       0.755  83.050 110.423  0.00  0.00     0.091 C 
ENDROOT
BRANCH   1   7
ATOM      7  O   LIG d   1       2.731  84.048 109.373  0.00  0.00    -0.368 OA
BRANCH   7   8
ATOM      8  C   LIG d   1       3.425  83.304 110.405  0.00  0.00     0.119 C 
BRANCH   8   9
ATOM      9  C   LIG d   1       4.047  84.327 111.374  0.00  0.00     0.028 C 
ATOM     10  C   LIG d   1       3.331  84.358 112.735  0.00  0.00     0.006 C 
ENDBRANCH   8   9
BRANCH   8  11
ATOM     11  C   LIG d   1       4.608  82.521 109.827  0.00  0.00     0.028 C 
ATOM     12  C   LIG d   1       4.247  81.756 108.544  0.00  0.00     0.006 C 
ENDBRANCH   8  11
ENDBRANCH   7   8
ENDBRANCH   1   7
BRANCH   6  13
ATOM     13  N   LIG d   1       0.715  81.819 109.592  0.00  0.00    -0.311 N 
ATOM     14  C   LIG d   1       0.977  80.603 110.068  0.00  0.00     0.210 C 
ATOM     15  C   LIG d   1       0.898  79.474 109.036  0.00  0.00     0.109 C 
ATOM     16  O   LIG d   1       1.235  80.349 111.254  0.00  0.00    -0.276 OA
ATOM     17  H   LIG d   1       0.483  81.930 108.624  0.00  0.00     0.149 HD
ENDBRANCH   6  13
BRANCH   5  18
ATOM     18  N   LIG d   1      -1.132  82.389 111.958  0.00  0.00     0.381 N 
ATOM     19  H   LIG d   1      -0.774  82.568 112.875  0.00  0.00    -0.090 HD
ATOM     20  H   LIG d   1      -0.807  81.485 111.664  0.00  0.00    -0.090 HD
ATOM     21  H   LIG d   1      -2.128  82.403 111.974  0.00  0.00    -0.090 HD
ENDBRANCH   5  18
BRANCH   3  22
ATOM     22  C   LIG d   1      -0.303  87.059 111.291  0.00  0.00     0.382 C 
ATOM     23  O   LIG d   1       0.555  87.901 111.649  0.00  0.00    -0.241 OA
ATOM     24  O   LIG d   1      -1.500  87.395 111.217  0.00  0.00    -0.241 OA
ENDBRANCH   3  22
TORSDOF 7
ENDMDL
MODEL 2
REMARK VINA RESULT:      -6.2      2.871      5.395
REMARK  7 active torsions:
REMARK  status: ('A' for Active; 'I' for Inactive)
REMARK    1  A    between atoms: C_2  and  C_3 
REMARK    2  A    between atoms: C_3  and  O_6 
REMARK    3  A    between atoms: C_3  and  C_4 
REMARK    4  A    between atoms: C_7  and  O_6 
REMARK    5  A    between atoms: C_9  and  C_10 
REMARK    6  A    between atoms: N_15  and  C_14 
REMARK    7  A    between atoms: N_20  and  C_19 
REMARK       I    between atoms: C_22  and  N_20 
ROOT
ATOM      1  C   LIG d   1       0.750  80.945 111.070  0.00  0.00     0.161 C 
ATOM      2  C   LIG d   1      -0.375  80.268 111.571  0.00  0.00     0.016 C 
ATOM      3  C   LIG d   1      -0.870  79.065 111.017  0.00  0.00     0.038 C 
ATOM      4  C   LIG d   1      -0.180  78.373 110.011  0.00  0.00     0.028 C 
ATOM      5  C   LIG d   1       0.681  79.276 109.135  0.00  0.00    -0.047 C 
ATOM      6  C   LIG d   1       1.580  80.146 110.044  0.00  0.00     0.091 C 
ENDROOT
BRANCH   1   7
ATOM      7  O   LIG d   1       1.585  81.379 112.161  0.00  0.00    -0.368 OA
BRANCH   7   8
ATOM      8  C   LIG d   1       1.659  82.810 112.376  0.00  0.00     0.119 C 
BRANCH   8   9
ATOM      9  C   LIG d   1       0.780  83.485 111.306  0.00  0.00     0.028 C 
ATOM     10  C   LIG d   1      -0.406  84.249 111.917  0.00  0.00     0.006 C 
ENDBRANCH   8   9
BRANCH   8  11
ATOM     11  C   LIG d   1       3.076  83.338 112.129  0.00  0.00     0.028 C 
ATOM     12  C   LIG d   1       3.122  84.443 111.063  0.00  0.00     0.006 C 
ENDBRANCH   8  11
ENDBRANCH   7   8
ENDBRANCH   1   7
BRANCH   6  13
ATOM     13  N   LIG d   1       2.395  81.119 109.270  0.00  0.00    -0.311 N 
ATOM     14  C   LIG d   1       3.725  81.073 109.205  0.00  0.00     0.210 C 
ATOM     15  C   LIG d   1       4.369  82.183 108.369  0.00  0.00     0.109 C 
ATOM     16  O   LIG d   1       4.429  80.200 109.733  0.00  0.00    -0.276 OA
ATOM     17  H   LIG d   1       1.902  81.843 108.785  0.00  0.00     0.149 HD
ENDBRANCH   6  13
BRANCH   5  18
ATOM     18  N   LIG d   1       1.449  78.410 108.221  0.00  0.00     0.381 N 
ATOM     19  H   LIG d   1       0.938  77.569 108.043  0.00  0.00    -0.090 HD
ATOM     20  H   LIG d   1       2.319  78.165 108.659  0.00  0.00    -0.090 HD
ATOM     21  H   LIG d   1       1.624  78.889 107.364  0.00  0.00    -0.090 HD
ENDBRANCH   5  18
BRANCH   3  22
ATOM     22  C   LIG d   1      -2.091  78.564 111.443  0.00  0.00     0.382 C 
ATOM     23  O   LIG d   1      -2.383  77.362 111.233  0.00  0.00    -0.241 OA
ATOM     24  O   LIG d   1      -2.922  79.310 111.995  0.00  0.00    -0.241 OA
ENDBRANCH   3  22
TORSDOF 7
ENDMDL
MODEL 3
REMARK VINA RESULT:      -6.1      1.843      5.321
REMARK  7 active torsions:
REMARK  status: ('A' for Active; 'I' for Inactive)
REMARK    1  A    between atoms: C_2  and  C_3 
REMARK    2  A    between atoms: C_3  and  O_6 
REMARK    3  A    between atoms: C_3  and  C_4 
REMARK    4  A    between atoms: C_7  and  O_6 
REMARK    5  A    between atoms: C_9  and  C_10 
REMARK    6  A    between atoms: N_15  and  C_14 
REMARK    7  A    between atoms: N_20  and  C_19 
REMARK       I    between atoms: C_22  and  N_20 
ROOT
ATOM      1  C   LIG d   1       1.554  82.050 110.308  0.00  0.00     0.161 C 
ATOM      2  C   LIG d   1       1.809  80.791 109.740  0.00  0.00     0.016 C 
ATOM      3  C   LIG d   1       1.012  79.649 109.987  0.00  0.00     0.038 C 
ATOM      4  C   LIG d   1      -0.191  79.727 110.705  0.00  0.00     0.028 C 
ATOM      5  C   LIG d   1      -0.220  80.868 111.716  0.00  0.00    -0.047 C 
ATOM      6  C   LIG d   1       0.183  82.179 111.005  0.00  0.00     0.091 C 
ENDROOT
BRANCH   1   7
ATOM      7  O   LIG d   1       1.706  83.077 109.308  0.00  0.00    -0.368 OA
BRANCH   7   8
ATOM      8  C   LIG d   1       2.951  83.818 109.340  0.00  0.00     0.119 C 
BRANCH   8   9
ATOM      9  C   LIG d   1       4.006  82.922 110.016  0.00  0.00     0.028 C 
ATOM     10  C   LIG d   1       4.989  82.307 109.005  0.00  0.00     0.006 C 
ENDBRANCH   8   9
BRANCH   8  11
ATOM     11  C   LIG d   1       2.838  85.057 110.234  0.00  0.00     0.028 C 
ATOM     12  C   LIG d   1       3.587  84.900 111.567  0.00  0.00     0.006 C 
ENDBRANCH   8  11
ENDBRANCH   7   8
ENDBRANCH   1   7
BRANCH   6  13
ATOM     13  N   LIG d   1       0.261  83.331 111.941  0.00  0.00    -0.311 N 
ATOM     14  C   LIG d   1      -0.377  84.483 111.741  0.00  0.00     0.210 C 
ATOM     15  C   LIG d   1      -0.144  85.547 112.818  0.00  0.00     0.109 C 
ATOM     16  O   LIG d   1      -1.139  84.713 110.790  0.00  0.00    -0.276 OA
ATOM     17  H   LIG d   1       0.834  83.219 112.755  0.00  0.00     0.149 HD
ENDBRANCH   6  13
BRANCH   5  18
ATOM     18  N   LIG d   1      -1.577  80.917 112.294  0.00  0.00     0.381 N 
ATOM     19  H   LIG d   1      -2.241  80.572 111.629  0.00  0.00    -0.090 HD
ATOM     20  H   LIG d   1      -1.807  81.873 112.502  0.00  0.00    -0.090 HD
ATOM     21  H   LIG d   1      -1.614  80.370 113.126  0.00  0.00    -0.090 HD
ENDBRANCH   5  18
BRANCH   3  22
ATOM     22  C   LIG d   1       1.437  78.405 109.547  0.00  0.00     0.382 C 
ATOM     23  O   LIG d   1       0.734  77.389 109.764  0.00  0.00    -0.241 OA
ATOM     24  O   LIG d   1       2.536  78.280 108.974  0.00  0.00    -0.241 OA
ENDBRANCH   3  22
TORSDOF 7
ENDMDL
MODEL 4
REMARK VINA RESULT:      -5.9      1.928      5.110
REMARK  7 active torsions:
REMARK  status: ('A' for Active; 'I' for Inactive)
REMARK    1  A    between atoms: C_2  and  C_3 
REMARK    2  A    between atoms: C_3  and  O_6 
REMARK    3  A    between atoms: C_3  and  C_4 
REMARK    4  A    between atoms: C_7  and  O_6 
REMARK    5  A    between atoms: C_9  and  C_10 
REMARK    6  A    between atoms: N_15  and  C_14 
REMARK    7  A    between atoms: N_20  and  C_19 
REMARK       I    between atoms: C_22  and  N_20 
ROOT
ATOM      1  C   LIG d   1       1.629  81.728 110.749  0.00  0.00     0.161 C 
ATOM      2  C   LIG d   1       1.742  80.449 110.181  0.00  0.00     0.016 C 
ATOM      3  C   LIG d   1       0.728  79.467 110.265  0.00  0.00     0.038 C 
ATOM      4  C   LIG d   1      -0.538  79.754 110.798  0.00  0.00     0.028 C 
ATOM      5  C   LIG d   1      -0.520  80.872 111.834  0.00  0.00    -0.047 C 
ATOM      6  C   LIG d   1       0.213  82.096 111.238  0.00  0.00     0.091 C 
ENDROOT
BRANCH   1   7
ATOM      7  O   LIG d   1       2.112  82.720 109.822  0.00  0.00    -0.368 OA
BRANCH   7   8
ATOM      8  C   LIG d   1       3.484  83.148 110.004  0.00  0.00     0.119 C 
BRANCH   8   9
ATOM      9  C   LIG d   1       3.478  84.685 110.116  0.00  0.00     0.028 C 
ATOM     10  C   LIG d   1       3.440  85.167 111.576  0.00  0.00     0.006 C 
ENDBRANCH   8   9
BRANCH   8  11
ATOM     11  C   LIG d   1       4.335  82.835 108.769  0.00  0.00     0.028 C 
ATOM     12  C   LIG d   1       4.958  81.431 108.815  0.00  0.00     0.006 C 
ENDBRANCH   8  11
ENDBRANCH   7   8
ENDBRANCH   1   7
BRANCH   6  13
ATOM     13  N   LIG d   1       0.349  83.207 112.216  0.00  0.00    -0.311 N 
ATOM     14  C   LIG d   1      -0.158  84.423 112.020  0.00  0.00     0.210 C 
ATOM     15  C   LIG d   1       0.114  85.426 113.145  0.00  0.00     0.109 C 
ATOM     16  O   LIG d   1      -0.834  84.757 111.035  0.00  0.00    -0.276 OA
ATOM     17  H   LIG d   1       0.856  83.014 113.058  0.00  0.00     0.149 HD
ENDBRANCH   6  13
BRANCH   5  18
ATOM     18  N   LIG d   1      -1.919  81.160 112.203  0.00  0.00     0.381 N 
ATOM     19  H   LIG d   1      -2.215  80.532 112.923  0.00  0.00    -0.090 HD
ATOM     20  H   LIG d   1      -2.504  81.016 111.399  0.00  0.00    -0.090 HD
ATOM     21  H   LIG d   1      -2.002  82.101 112.519  0.00  0.00    -0.090 HD
ENDBRANCH   5  18
BRANCH   3  22
ATOM     22  C   LIG d   1       0.989  78.171 109.848  0.00  0.00     0.382 C 
ATOM     23  O   LIG d   1       2.038  77.918 109.208  0.00  0.00    -0.241 OA
ATOM     24  O   LIG d   1       0.169  77.260 110.067  0.00  0.00    -0.241 OA
ENDBRANCH   3  22
TORSDOF 7
ENDMDL
MODEL 5
REMARK VINA RESULT:      -5.8      2.549      4.695
REMARK  7 active torsions:
REMARK  status: ('A' for Active; 'I' for Inactive)
REMARK    1  A    between atoms: C_2  and  C_3 
REMARK    2  A    between atoms: C_3  and  O_6 
REMARK    3  A    between atoms: C_3  and  C_4 
REMARK    4  A    between atoms: C_7  and  O_6 
REMARK    5  A    between atoms: C_9  and  C_10 
REMARK    6  A    between atoms: N_15  and  C_14 
REMARK    7  A    between atoms: N_20  and  C_19 
REMARK       I    between atoms: C_22  and  N_20 
ROOT
ATOM      1  C   LIG d   1       1.498  81.397 111.823  0.00  0.00     0.161 C 
ATOM      2  C   LIG d   1       2.531  82.051 111.131  0.00  0.00     0.016 C 
ATOM      3  C   LIG d   1       2.651  82.041 109.722  0.00  0.00     0.038 C 
ATOM      4  C   LIG d   1       1.655  81.499 108.897  0.00  0.00     0.028 C 
ATOM      5  C   LIG d   1       0.851  80.389 109.566  0.00  0.00    -0.047 C 
ATOM      6  C   LIG d   1       0.341  80.894 110.935  0.00  0.00     0.091 C 
ENDROOT
BRANCH   1   7
ATOM      7  O   LIG d   1       0.993  82.251 112.868  0.00  0.00    -0.368 OA
BRANCH   7   8
ATOM      8  C   LIG d   1       1.135  83.676 112.651  0.00  0.00     0.119 C 
BRANCH   8   9
ATOM      9  C   LIG d   1       1.525  84.314 113.998  0.00  0.00     0.028 C 
ATOM     10  C   LIG d   1       1.391  85.846 113.983  0.00  0.00     0.006 C 
ENDBRANCH   8   9
BRANCH   8  11
ATOM     11  C   LIG d   1      -0.203  84.318 112.270  0.00  0.00     0.028 C 
ATOM     12  C   LIG d   1      -0.332  84.576 110.760  0.00  0.00     0.006 C 
ENDBRANCH   8  11
ENDBRANCH   7   8
ENDBRANCH   1   7
BRANCH   6  13
ATOM     13  N   LIG d   1      -0.384  79.842 111.693  0.00  0.00    -0.311 N 
ATOM     14  C   LIG d   1      -1.563  80.042 112.281  0.00  0.00     0.210 C 
ATOM     15  C   LIG d   1      -2.127  78.829 113.028  0.00  0.00     0.109 C 
ATOM     16  O   LIG d   1      -2.209  81.099 112.227  0.00  0.00    -0.276 OA
ATOM     17  H   LIG d   1       0.054  78.944 111.760  0.00  0.00     0.149 HD
ENDBRANCH   6  13
BRANCH   5  18
ATOM     18  N   LIG d   1      -0.239  80.011 108.646  0.00  0.00     0.381 N 
ATOM     19  H   LIG d   1      -0.324  79.015 108.614  0.00  0.00    -0.090 HD
ATOM     20  H   LIG d   1      -0.013  80.339 107.723  0.00  0.00    -0.090 HD
ATOM     21  H   LIG d   1      -1.097  80.416 108.949  0.00  0.00    -0.090 HD
ENDBRANCH   5  18
BRANCH   3  22
ATOM     22  C   LIG d   1       3.798  82.543 109.127  0.00  0.00     0.382 C 
ATOM     23  O   LIG d   1       4.347  81.912 108.192  0.00  0.00    -0.241 OA
ATOM     24  O   LIG d   1       4.316  83.597 109.543  0.00  0.00    -0.241 OA
ENDBRANCH   3  22
TORSDOF 7
ENDMDL
MODEL 6
REMARK VINA RESULT:      -5.8      1.422      2.291
REMARK  7 active torsions:
REMARK  status: ('A' for Active; 'I' for Inactive)
REMARK    1  A    between atoms: C_2  and  C_3 
REMARK    2  A    between atoms: C_3  and  O_6 
REMARK    3  A    between atoms: C_3  and  C_4 
REMARK    4  A    between atoms: C_7  and  O_6 
REMARK    5  A    between atoms: C_9  and  C_10 
REMARK    6  A    between atoms: N_15  and  C_14 
REMARK    7  A    between atoms: N_20  and  C_19 
REMARK       I    between atoms: C_22  and  N_20 
ROOT
ATOM      1  C   LIG d   1       1.770  83.180 109.975  0.00  0.00     0.161 C 
ATOM      2  C   LIG d   1       1.961  84.530 110.313  0.00  0.00     0.016 C 
ATOM      3  C   LIG d   1       1.080  85.256 111.147  0.00  0.00     0.038 C 
ATOM      4  C   LIG d   1       0.022  84.634 111.826  0.00  0.00     0.028 C 
ATOM      5  C   LIG d   1      -0.505  83.390 111.118  0.00  0.00    -0.047 C 
ATOM      6  C   LIG d   1       0.683  82.456 110.795  0.00  0.00     0.091 C 
ENDROOT
BRANCH   1   7
ATOM      7  O   LIG d   1       3.022  82.472 110.066  0.00  0.00    -0.368 OA
BRANCH   7   8
ATOM      8  C   LIG d   1       3.221  81.402 109.109  0.00  0.00     0.119 C 
BRANCH   8   9
ATOM      9  C   LIG d   1       3.699  80.164 109.892  0.00  0.00     0.028 C 
ATOM     10  C   LIG d   1       3.048  78.865 109.390  0.00  0.00     0.006 C 
ENDBRANCH   8   9
BRANCH   8  11
ATOM     11  C   LIG d   1       4.356  81.730 108.135  0.00  0.00     0.028 C 
ATOM     12  C   LIG d   1       5.273  82.852 108.644  0.00  0.00     0.006 C 
ENDBRANCH   8  11
ENDBRANCH   7   8
ENDBRANCH   1   7
BRANCH   6  13
ATOM     13  N   LIG d   1       0.266  81.254 110.027  0.00  0.00    -0.311 N 
ATOM     14  C   LIG d   1      -0.076  80.100 110.599  0.00  0.00     0.210 C 
ATOM     15  C   LIG d   1      -0.454  78.982 109.623  0.00  0.00     0.109 C 
ATOM     16  O   LIG d   1      -0.133  79.907 111.823  0.00  0.00    -0.276 OA
ATOM     17  H   LIG d   1       0.254  81.332 109.029  0.00  0.00     0.149 HD
ENDBRANCH   6  13
BRANCH   5  18
ATOM     18  N   LIG d   1      -1.508  82.766 112.001  0.00  0.00     0.381 N 
ATOM     19  H   LIG d   1      -1.049  82.260 112.732  0.00  0.00    -0.090 HD
ATOM     20  H   LIG d   1      -2.055  82.117 111.464  0.00  0.00    -0.090 HD
ATOM     21  H   LIG d   1      -2.100  83.465 112.393  0.00  0.00    -0.090 HD
ENDBRANCH   5  18
BRANCH   3  22
ATOM     22  C   LIG d   1       1.230  86.628 111.276  0.00  0.00     0.382 C 
ATOM     23  O   LIG d   1       0.375  87.295 111.907  0.00  0.00    -0.241 OA
ATOM     24  O   LIG d   1       2.185  87.213 110.733  0.00  0.00    -0.241 OA
ENDBRANCH   3  22
TORSDOF 7
ENDMDL
MODEL 7
REMARK VINA RESULT:      -5.6      2.384      5.281
REMARK  7 active torsions:
REMARK  status: ('A' for Active; 'I' for Inactive)
REMARK    1  A    between atoms: C_2  and  C_3 
REMARK    2  A    between atoms: C_3  and  O_6 
REMARK    3  A    between atoms: C_3  and  C_4 
REMARK    4  A    between atoms: C_7  and  O_6 
REMARK    5  A    between atoms: C_9  and  C_10 
REMARK    6  A    between atoms: N_15  and  C_14 
REMARK    7  A    between atoms: N_20  and  C_19 
REMARK       I    between atoms: C_22  and  N_20 
ROOT
ATOM      1  C   LIG d   1       1.740  82.605 110.417  0.00  0.00     0.161 C 
ATOM      2  C   LIG d   1       2.185  81.525 109.636  0.00  0.00     0.016 C 
ATOM      3  C   LIG d   1       1.921  80.173 109.957  0.00  0.00     0.038 C 
ATOM      4  C   LIG d   1       1.061  79.814 111.005  0.00  0.00     0.028 C 
ATOM      5  C   LIG d   1       1.000  80.851 112.121  0.00  0.00    -0.047 C 
ATOM      6  C   LIG d   1       0.708  82.237 111.502  0.00  0.00     0.091 C 
ENDROOT
BRANCH   1   7
ATOM      7  O   LIG d   1       1.222  83.644 109.563  0.00  0.00    -0.368 OA
BRANCH   7   8
ATOM      8  C   LIG d   1       2.031  84.840 109.451  0.00  0.00     0.119 C 
BRANCH   8   9
ATOM      9  C   LIG d   1       3.296  84.625 110.303  0.00  0.00     0.028 C 
ATOM     10  C   LIG d   1       3.638  85.850 111.167  0.00  0.00     0.006 C 
ENDBRANCH   8   9
BRANCH   8  11
ATOM     11  C   LIG d   1       1.326  86.051 110.071  0.00  0.00     0.028 C 
ATOM     12  C   LIG d   1      -0.206  85.930 110.035  0.00  0.00     0.006 C 
ENDBRANCH   8  11
ENDBRANCH   7   8
ENDBRANCH   1   7
BRANCH   6  13
ATOM     13  N   LIG d   1       0.714  83.323 112.517  0.00  0.00    -0.311 N 
ATOM     14  C   LIG d   1       1.732  83.545 113.347  0.00  0.00     0.210 C 
ATOM     15  C   LIG d   1       1.526  84.703 114.328  0.00  0.00     0.109 C 
ATOM     16  O   LIG d   1       2.799  82.913 113.342  0.00  0.00    -0.276 OA
ATOM     17  H   LIG d   1      -0.099  83.904 112.568  0.00  0.00     0.149 HD
ENDBRANCH   6  13
BRANCH   5  18
ATOM     18  N   LIG d   1      -0.034  80.415 113.078  0.00  0.00     0.381 N 
ATOM     19  H   LIG d   1      -0.937  80.699 112.755  0.00  0.00    -0.090 HD
ATOM     20  H   LIG d   1       0.137  80.857 113.965  0.00  0.00    -0.090 HD
ATOM     21  H   LIG d   1      -0.007  79.425 113.182  0.00  0.00    -0.090 HD
ENDBRANCH   5  18
BRANCH   3  22
ATOM     22  C   LIG d   1       2.554  79.163 109.248  0.00  0.00     0.382 C 
ATOM     23  O   LIG d   1       1.877  78.361 108.560  0.00  0.00    -0.241 OA
ATOM     24  O   LIG d   1       3.789  79.017 109.323  0.00  0.00    -0.241 OA
ENDBRANCH   3  22
TORSDOF 7
ENDMDL
MODEL 8
REMARK VINA RESULT:      -5.6      2.354      4.859
REMARK  7 active torsions:
REMARK  status: ('A' for Active; 'I' for Inactive)
REMARK    1  A    between atoms: C_2  and  C_3 
REMARK    2  A    between atoms: C_3  and  O_6 
REMARK    3  A    between atoms: C_3  and  C_4 
REMARK    4  A    between atoms: C_7  and  O_6 
REMARK    5  A    between atoms: C_9  and  C_10 
REMARK    6  A    between atoms: N_15  and  C_14 
REMARK    7  A    between atoms: N_20  and  C_19 
REMARK       I    between atoms: C_22  and  N_20 
ROOT
ATOM      1  C   LIG d   1       2.240  83.356 112.316  0.00  0.00     0.161 C 
ATOM      2  C   LIG d   1       1.422  82.253 112.018  0.00  0.00     0.016 C 
ATOM      3  C   LIG d   1       0.046  82.366 111.711  0.00  0.00     0.038 C 
ATOM      4  C   LIG d   1      -0.573  83.612 111.531  0.00  0.00     0.028 C 
ATOM      5  C   LIG d   1       0.091  84.738 112.315  0.00  0.00    -0.047 C 
ATOM      6  C   LIG d   1       1.608  84.731 112.016  0.00  0.00     0.091 C 
ENDROOT
BRANCH   1   7
ATOM      7  O   LIG d   1       3.503  83.225 111.633  0.00  0.00    -0.368 OA
BRANCH   7   8
ATOM      8  C   LIG d   1       3.441  82.762 110.262  0.00  0.00     0.119 C 
BRANCH   8   9
ATOM      9  C   LIG d   1       4.866  82.344 109.850  0.00  0.00     0.028 C 
ATOM     10  C   LIG d   1       4.874  81.101 108.945  0.00  0.00     0.006 C 
ENDBRANCH   8   9
BRANCH   8  11
ATOM     11  C   LIG d   1       3.060  83.897 109.307  0.00  0.00     0.028 C 
ATOM     12  C   LIG d   1       1.803  83.583 108.480  0.00  0.00     0.006 C 
ENDBRANCH   8  11
ENDBRANCH   7   8
ENDBRANCH   1   7
BRANCH   6  13
ATOM     13  N   LIG d   1       2.346  85.748 112.808  0.00  0.00    -0.311 N 
ATOM     14  C   LIG d   1       2.650  86.959 112.345  0.00  0.00     0.210 C 
ATOM     15  C   LIG d   1       3.434  87.846 113.318  0.00  0.00     0.109 C 
ATOM     16  O   LIG d   1       2.318  87.395 111.232  0.00  0.00    -0.276 OA
ATOM     17  H   LIG d   1       2.627  85.490 113.734  0.00  0.00     0.149 HD
ENDBRANCH   6  13
BRANCH   5  18
ATOM     18  N   LIG d   1      -0.569  85.999 111.929  0.00  0.00     0.381 N 
ATOM     19  H   LIG d   1      -0.738  86.556 112.743  0.00  0.00    -0.090 HD
ATOM     20  H   LIG d   1      -1.453  85.786 111.503  0.00  0.00    -0.090 HD
ATOM     21  H   LIG d   1       0.005  86.502 111.287  0.00  0.00    -0.090 HD
ENDBRANCH   5  18
BRANCH   3  22
ATOM     22  C   LIG d   1      -0.733  81.223 111.619  0.00  0.00     0.382 C 
ATOM     23  O   LIG d   1      -0.398  80.296 110.843  0.00  0.00    -0.241 OA
ATOM     24  O   LIG d   1      -1.791  81.126 112.269  0.00  0.00    -0.241 OA
ENDBRANCH   3  22
TORSDOF 7
ENDMDL
MODEL 9
REMARK VINA RESULT:      -5.4      1.800      2.208
REMARK  7 active torsions:
REMARK  status: ('A' for Active; 'I' for Inactive)
REMARK    1  A    between atoms: C_2  and  C_3 
REMARK    2  A    between atoms: C_3  and  O_6 
REMARK    3  A    between atoms: C_3  and  C_4 
REMARK    4  A    between atoms: C_7  and  O_6 
REMARK    5  A    between atoms: C_9  and  C_10 
REMARK    6  A    between atoms: N_15  and  C_14 
REMARK    7  A    between atoms: N_20  and  C_19 
REMARK       I    between atoms: C_22  and  N_20 
ROOT
ATOM      1  C   LIG d   1       0.805  84.450 110.622  0.00  0.00     0.161 C 
ATOM      2  C   LIG d   1       1.263  85.770 110.769  0.00  0.00     0.016 C 
ATOM      3  C   LIG d   1       1.726  86.301 111.994  0.00  0.00     0.038 C 
ATOM      4  C   LIG d   1       1.906  85.498 113.130  0.00  0.00     0.028 C 
ATOM      5  C   LIG d   1       0.982  84.285 113.166  0.00  0.00    -0.047 C 
ATOM      6  C   LIG d   1       1.097  83.527 111.824  0.00  0.00     0.091 C 
ENDROOT
BRANCH   1   7
ATOM      7  O   LIG d   1       1.338  83.879 109.411  0.00  0.00    -0.368 OA
BRANCH   7   8
ATOM      8  C   LIG d   1       2.524  83.061 109.560  0.00  0.00     0.119 C 
BRANCH   8   9
ATOM      9  C   LIG d   1       3.711  84.009 109.816  0.00  0.00     0.028 C 
ATOM     10  C   LIG d   1       4.437  83.697 111.136  0.00  0.00     0.006 C 
ENDBRANCH   8   9
BRANCH   8  11
ATOM     11  C   LIG d   1       2.863  82.328 108.258  0.00  0.00     0.028 C 
ATOM     12  C   LIG d   1       4.216  81.602 108.318  0.00  0.00     0.006 C 
ENDBRANCH   8  11
ENDBRANCH   7   8
ENDBRANCH   1   7
BRANCH   6  13
ATOM     13  N   LIG d   1       0.164  82.373 111.742  0.00  0.00    -0.311 N 
ATOM     14  C   LIG d   1       0.516  81.123 112.037  0.00  0.00     0.210 C 
ATOM     15  C   LIG d   1      -0.595  80.081 111.867  0.00  0.00     0.109 C 
ATOM     16  O   LIG d   1       1.633  80.782 112.453  0.00  0.00    -0.276 OA
ATOM     17  H   LIG d   1      -0.773  82.564 111.443  0.00  0.00     0.149 HD
ENDBRANCH   6  13
BRANCH   5  18
ATOM     18  N   LIG d   1       1.370  83.464 114.329  0.00  0.00     0.381 N 
ATOM     19  H   LIG d   1       0.819  82.629 114.352  0.00  0.00    -0.090 HD
ATOM     20  H   LIG d   1       1.189  83.984 115.169  0.00  0.00    -0.090 HD
ATOM     21  H   LIG d   1       2.337  83.231 114.275  0.00  0.00    -0.090 HD
ENDBRANCH   5  18
BRANCH   3  22
ATOM     22  C   LIG d   1       1.978  87.660 112.102  0.00  0.00     0.382 C 
ATOM     23  O   LIG d   1       3.089  88.060 112.528  0.00  0.00    -0.241 OA
ATOM     24  O   LIG d   1       1.093  88.491 111.823  0.00  0.00    -0.241 OA
ENDBRANCH   3  22
TORSDOF 7
ENDMDL
