MODEL 1
REMARK VINA RESULT:      -5.7      0.000      0.000
REMARK  7 active torsions:
REMARK  status: ('A' for Active; 'I' for Inactive)
REMARK    1  A    between atoms: C_2  and  C_3 
REMARK    2  A    between atoms: C_3  and  O_6 
REMARK    3  A    between atoms: C_3  and  C_4 
REMARK    4  A    between atoms: C_7  and  O_6 
REMARK    5  A    between atoms: C_9  and  C_10 
REMARK    6  A    between atoms: N_15  and  C_14 
REMARK    7  A    between atoms: N_20  and  C_19 
REMARK       I    between atoms: C_22  and  N_20 
ROOT
ATOM      1  C   LIG d   1      -8.433  74.650 117.238  0.00  0.00     0.161 C 
ATOM      2  C   LIG d   1      -8.295  73.290 116.916  0.00  0.00     0.016 C 
ATOM      3  C   LIG d   1      -9.100  72.272 117.478  0.00  0.00     0.038 C 
ATOM      4  C   LIG d   1     -10.205  72.564 118.292  0.00  0.00     0.028 C 
ATOM      5  C   LIG d   1     -10.070  73.884 119.044  0.00  0.00    -0.047 C 
ATOM      6  C   LIG d   1      -9.705  75.000 118.038  0.00  0.00     0.091 C 
ENDROOT
BRANCH   1   7
ATOM      7  O   LIG d   1      -8.362  75.446 116.038  0.00  0.00    -0.368 OA
BRANCH   7   8
ATOM      8  C   LIG d   1      -7.102  76.119 115.794  0.00  0.00     0.119 C 
BRANCH   8   9
ATOM      9  C   LIG d   1      -6.461  75.465 114.555  0.00  0.00     0.028 C 
ATOM     10  C   LIG d   1      -5.316  74.506 114.924  0.00  0.00     0.006 C 
ENDBRANCH   8   9
BRANCH   8  11
ATOM     11  C   LIG d   1      -6.112  75.880 116.937  0.00  0.00     0.028 C 
ATOM     12  C   LIG d   1      -5.715  77.176 117.662  0.00  0.00     0.006 C 
ENDBRANCH   8  11
ENDBRANCH   7   8
ENDBRANCH   1   7
BRANCH   6  13
ATOM     13  N   LIG d   1      -9.472  76.308 118.704  0.00  0.00    -0.311 N 
ATOM     14  C   LIG d   1     -10.404  77.254 118.807  0.00  0.00     0.210 C 
ATOM     15  C   LIG d   1      -9.949  78.536 119.513  0.00  0.00     0.109 C 
ATOM     16  O   LIG d   1     -11.573  77.141 118.410  0.00  0.00    -0.276 OA
ATOM     17  H   LIG d   1      -8.559  76.472 119.082  0.00  0.00     0.149 HD
ENDBRANCH   6  13
BRANCH   5  18
ATOM     18  N   LIG d   1     -11.346  74.131 119.743  0.00  0.00     0.381 N 
ATOM     19  H   LIG d   1     -11.534  73.381 120.379  0.00  0.00    -0.090 HD
ATOM     20  H   LIG d   1     -12.087  74.163 119.065  0.00  0.00    -0.090 HD
ATOM     21  H   LIG d   1     -11.302  74.994 120.239  0.00  0.00    -0.090 HD
ENDBRANCH   5  18
BRANCH   3  22
ATOM     22  C   LIG d   1      -8.778  70.941 117.259  0.00  0.00     0.382 C 
ATOM     23  O   LIG d   1      -7.813  70.645 116.514  0.00  0.00    -0.241 OA
ATOM     24  O   LIG d   1      -9.467  70.033 117.761  0.00  0.00    -0.241 OA
ENDBRANCH   3  22
TORSDOF 7
ENDMDL
MODEL 2
REMARK VINA RESULT:      -5.7      2.083      4.358
REMARK  7 active torsions:
REMARK  status: ('A' for Active; 'I' for Inactive)
REMARK    1  A    between atoms: C_2  and  C_3 
REMARK    2  A    between atoms: C_3  and  O_6 
REMARK    3  A    between atoms: C_3  and  C_4 
REMARK    4  A    between atoms: C_7  and  O_6 
REMARK    5  A    between atoms: C_9  and  C_10 
REMARK    6  A    between atoms: N_15  and  C_14 
REMARK    7  A    between atoms: N_20  and  C_19 
REMARK       I    between atoms: C_22  and  N_20 
ROOT
ATOM      1  C   LIG d   1      -9.683  74.040 117.915  0.00  0.00     0.161 C 
ATOM      2  C   LIG d   1      -9.318  72.726 117.578  0.00  0.00     0.016 C 
ATOM      3  C   LIG d   1      -8.132  72.403 116.880  0.00  0.00     0.038 C 
ATOM      4  C   LIG d   1      -7.149  73.365 116.603  0.00  0.00     0.028 C 
ATOM      5  C   LIG d   1      -7.704  74.780 116.478  0.00  0.00    -0.047 C 
ATOM      6  C   LIG d   1      -8.570  75.091 117.720  0.00  0.00     0.091 C 
ENDROOT
BRANCH   1   7
ATOM      7  O   LIG d   1     -10.176  74.077 119.270  0.00  0.00    -0.368 OA
BRANCH   7   8
ATOM      8  C   LIG d   1     -11.547  73.652 119.461  0.00  0.00     0.119 C 
BRANCH   8   9
ATOM      9  C   LIG d   1     -12.446  74.612 118.657  0.00  0.00     0.028 C 
ATOM     10  C   LIG d   1     -12.470  76.030 119.253  0.00  0.00     0.006 C 
ENDBRANCH   8   9
BRANCH   8  11
ATOM     11  C   LIG d   1     -11.983  73.815 120.920  0.00  0.00     0.028 C 
ATOM     12  C   LIG d   1     -10.797  74.011 121.878  0.00  0.00     0.006 C 
ENDBRANCH   8  11
ENDBRANCH   7   8
ENDBRANCH   1   7
BRANCH   6  13
ATOM     13  N   LIG d   1      -9.221  76.425 117.638  0.00  0.00    -0.311 N 
ATOM     14  C   LIG d   1      -9.043  77.383 118.546  0.00  0.00     0.210 C 
ATOM     15  C   LIG d   1      -9.823  78.675 118.282  0.00  0.00     0.109 C 
ATOM     16  O   LIG d   1      -8.290  77.298 119.527  0.00  0.00    -0.276 OA
ATOM     17  H   LIG d   1      -9.825  76.590 116.857  0.00  0.00     0.149 HD
ENDBRANCH   6  13
BRANCH   5  18
ATOM     18  N   LIG d   1      -6.559  75.697 116.328  0.00  0.00     0.381 N 
ATOM     19  H   LIG d   1      -6.659  76.228 115.486  0.00  0.00    -0.090 HD
ATOM     20  H   LIG d   1      -5.715  75.155 116.260  0.00  0.00    -0.090 HD
ATOM     21  H   LIG d   1      -6.507  76.309 117.112  0.00  0.00    -0.090 HD
ENDBRANCH   5  18
BRANCH   3  22
ATOM     22  C   LIG d   1      -7.937  71.111 116.415  0.00  0.00     0.382 C 
ATOM     23  O   LIG d   1      -7.025  70.873 115.588  0.00  0.00    -0.241 OA
ATOM     24  O   LIG d   1      -8.691  70.189 116.780  0.00  0.00    -0.241 OA
ENDBRANCH   3  22
TORSDOF 7
ENDMDL
MODEL 3
REMARK VINA RESULT:      -5.6     15.193     18.338
REMARK  7 active torsions:
REMARK  status: ('A' for Active; 'I' for Inactive)
REMARK    1  A    between atoms: C_2  and  C_3 
REMARK    2  A    between atoms: C_3  and  O_6 
REMARK    3  A    between atoms: C_3  and  C_4 
REMARK    4  A    between atoms: C_7  and  O_6 
REMARK    5  A    between atoms: C_9  and  C_10 
REMARK    6  A    between atoms: N_15  and  C_14 
REMARK    7  A    between atoms: N_20  and  C_19 
REMARK       I    between atoms: C_22  and  N_20 
ROOT
ATOM      1  C   LIG d   1      -5.686  92.283 117.519  0.00  0.00     0.161 C 
ATOM      2  C   LIG d   1      -6.667  91.320 117.227  0.00  0.00     0.016 C 
ATOM      3  C   LIG d   1      -6.369  89.967 116.944  0.00  0.00     0.038 C 
ATOM      4  C   LIG d   1      -5.073  89.449 117.083  0.00  0.00     0.028 C 
ATOM      5  C   LIG d   1      -3.978  90.492 116.883  0.00  0.00    -0.047 C 
ATOM      6  C   LIG d   1      -4.277  91.712 117.784  0.00  0.00     0.091 C 
ENDROOT
BRANCH   1   7
ATOM      7  O   LIG d   1      -6.115  93.095 118.630  0.00  0.00    -0.368 OA
BRANCH   7   8
ATOM      8  C   LIG d   1      -6.517  94.450 118.311  0.00  0.00     0.119 C 
BRANCH   8   9
ATOM      9  C   LIG d   1      -5.997  95.365 119.437  0.00  0.00     0.028 C 
ATOM     10  C   LIG d   1      -4.929  94.678 120.305  0.00  0.00     0.006 C 
ENDBRANCH   8   9
BRANCH   8  11
ATOM     11  C   LIG d   1      -8.041  94.600 118.339  0.00  0.00     0.028 C 
ATOM     12  C   LIG d   1      -8.600  94.743 119.763  0.00  0.00     0.006 C 
ENDBRANCH   8  11
ENDBRANCH   7   8
ENDBRANCH   1   7
BRANCH   6  13
ATOM     13  N   LIG d   1      -3.301  92.815 117.588  0.00  0.00    -0.311 N 
ATOM     14  C   LIG d   1      -2.223  92.985 118.352  0.00  0.00     0.210 C 
ATOM     15  C   LIG d   1      -1.359  94.197 117.990  0.00  0.00     0.109 C 
ATOM     16  O   LIG d   1      -1.885  92.229 119.275  0.00  0.00    -0.276 OA
ATOM     17  H   LIG d   1      -3.482  93.457 116.841  0.00  0.00     0.149 HD
ENDBRANCH   6  13
BRANCH   5  18
ATOM     18  N   LIG d   1      -2.687  89.848 117.191  0.00  0.00     0.381 N 
ATOM     19  H   LIG d   1      -2.789  89.247 117.984  0.00  0.00    -0.090 HD
ATOM     20  H   LIG d   1      -2.016  90.560 117.419  0.00  0.00    -0.090 HD
ATOM     21  H   LIG d   1      -2.372  89.323 116.405  0.00  0.00    -0.090 HD
ENDBRANCH   5  18
BRANCH   3  22
ATOM     22  C   LIG d   1      -7.368  89.127 116.478  0.00  0.00     0.382 C 
ATOM     23  O   LIG d   1      -8.003  88.402 117.282  0.00  0.00    -0.241 OA
ATOM     24  O   LIG d   1      -7.613  89.051 115.259  0.00  0.00    -0.241 OA
ENDBRANCH   3  22
TORSDOF 7
ENDMDL
MODEL 4
REMARK VINA RESULT:      -5.6      2.283      4.980
REMARK  7 active torsions:
REMARK  status: ('A' for Active; 'I' for Inactive)
REMARK    1  A    between atoms: C_2  and  C_3 
REMARK    2  A    between atoms: C_3  and  O_6 
REMARK    3  A    between atoms: C_3  and  C_4 
REMARK    4  A    between atoms: C_7  and  O_6 
REMARK    5  A    between atoms: C_9  and  C_10 
REMARK    6  A    between atoms: N_15  and  C_14 
REMARK    7  A    between atoms: N_20  and  C_19 
REMARK       I    between atoms: C_22  and  N_20 
ROOT
ATOM      1  C   LIG d   1      -7.833  74.905 117.007  0.00  0.00     0.161 C 
ATOM      2  C   LIG d   1      -6.903  74.682 115.978  0.00  0.00     0.016 C 
ATOM      3  C   LIG d   1      -5.759  75.487 115.775  0.00  0.00     0.038 C 
ATOM      4  C   LIG d   1      -5.385  76.487 116.686  0.00  0.00     0.028 C 
ATOM      5  C   LIG d   1      -6.562  77.075 117.456  0.00  0.00    -0.047 C 
ATOM      6  C   LIG d   1      -7.383  75.922 118.077  0.00  0.00     0.091 C 
ENDROOT
BRANCH   1   7
ATOM      7  O   LIG d   1      -8.188  73.652 117.625  0.00  0.00    -0.368 OA
BRANCH   7   8
ATOM      8  C   LIG d   1      -9.366  72.993 117.099  0.00  0.00     0.119 C 
BRANCH   8   9
ATOM      9  C   LIG d   1     -10.518  73.242 118.091  0.00  0.00     0.028 C 
ATOM     10  C   LIG d   1     -11.440  74.390 117.644  0.00  0.00     0.006 C 
ENDBRANCH   8   9
BRANCH   8  11
ATOM     11  C   LIG d   1      -9.184  71.473 117.062  0.00  0.00     0.028 C 
ATOM     12  C   LIG d   1      -7.877  71.045 116.376  0.00  0.00     0.006 C 
ENDBRANCH   8  11
ENDBRANCH   7   8
ENDBRANCH   1   7
BRANCH   6  13
ATOM     13  N   LIG d   1      -8.600  76.406 118.778  0.00  0.00    -0.311 N 
ATOM     14  C   LIG d   1      -8.920  76.051 120.021  0.00  0.00     0.210 C 
ATOM     15  C   LIG d   1     -10.229  76.649 120.548  0.00  0.00     0.109 C 
ATOM     16  O   LIG d   1      -8.227  75.325 120.750  0.00  0.00    -0.276 OA
ATOM     17  H   LIG d   1      -9.203  77.024 118.271  0.00  0.00     0.149 HD
ENDBRANCH   6  13
BRANCH   5  18
ATOM     18  N   LIG d   1      -6.015  78.003 118.465  0.00  0.00     0.381 N 
ATOM     19  H   LIG d   1      -6.379  78.923 118.311  0.00  0.00    -0.090 HD
ATOM     20  H   LIG d   1      -5.016  78.039 118.366  0.00  0.00    -0.090 HD
ATOM     21  H   LIG d   1      -6.255  77.692 119.380  0.00  0.00    -0.090 HD
ENDBRANCH   5  18
BRANCH   3  22
ATOM     22  C   LIG d   1      -4.997  75.323 114.629  0.00  0.00     0.382 C 
ATOM     23  O   LIG d   1      -4.145  74.404 114.569  0.00  0.00    -0.241 OA
ATOM     24  O   LIG d   1      -5.120  76.109 113.670  0.00  0.00    -0.241 OA
ENDBRANCH   3  22
TORSDOF 7
ENDMDL
MODEL 5
REMARK VINA RESULT:      -5.6      2.521      6.392
REMARK  7 active torsions:
REMARK  status: ('A' for Active; 'I' for Inactive)
REMARK    1  A    between atoms: C_2  and  C_3 
REMARK    2  A    between atoms: C_3  and  O_6 
REMARK    3  A    between atoms: C_3  and  C_4 
REMARK    4  A    between atoms: C_7  and  O_6 
REMARK    5  A    between atoms: C_9  and  C_10 
REMARK    6  A    between atoms: N_15  and  C_14 
REMARK    7  A    between atoms: N_20  and  C_19 
REMARK       I    between atoms: C_22  and  N_20 
ROOT
ATOM      1  C   LIG d   1      -9.952  76.290 118.232  0.00  0.00     0.161 C 
ATOM      2  C   LIG d   1     -10.617  77.297 118.951  0.00  0.00     0.016 C 
ATOM      3  C   LIG d   1     -10.054  78.568 119.210  0.00  0.00     0.038 C 
ATOM      4  C   LIG d   1      -8.841  78.973 118.635  0.00  0.00     0.028 C 
ATOM      5  C   LIG d   1      -7.903  77.813 118.320  0.00  0.00    -0.047 C 
ATOM      6  C   LIG d   1      -8.674  76.752 117.502  0.00  0.00     0.091 C 
ENDROOT
BRANCH   1   7
ATOM      7  O   LIG d   1     -10.863  75.670 117.303  0.00  0.00    -0.368 OA
BRANCH   7   8
ATOM      8  C   LIG d   1     -11.429  74.401 117.715  0.00  0.00     0.119 C 
BRANCH   8   9
ATOM      9  C   LIG d   1     -12.520  74.699 118.761  0.00  0.00     0.028 C 
ATOM     10  C   LIG d   1     -12.437  73.764 119.979  0.00  0.00     0.006 C 
ENDBRANCH   8   9
BRANCH   8  11
ATOM     11  C   LIG d   1     -10.393  73.540 118.444  0.00  0.00     0.028 C 
ATOM     12  C   LIG d   1      -9.687  72.541 117.512  0.00  0.00     0.006 C 
ENDBRANCH   8  11
ENDBRANCH   7   8
ENDBRANCH   1   7
BRANCH   6  13
ATOM     13  N   LIG d   1      -7.853  75.545 117.224  0.00  0.00    -0.311 N 
ATOM     14  C   LIG d   1      -7.170  75.367 116.094  0.00  0.00     0.210 C 
ATOM     15  C   LIG d   1      -6.406  74.042 116.003  0.00  0.00     0.109 C 
ATOM     16  O   LIG d   1      -7.098  76.194 115.173  0.00  0.00    -0.276 OA
ATOM     17  H   LIG d   1      -7.830  74.836 117.931  0.00  0.00     0.149 HD
ENDBRANCH   6  13
BRANCH   5  18
ATOM     18  N   LIG d   1      -6.738  78.364 117.601  0.00  0.00     0.381 N 
ATOM     19  H   LIG d   1      -6.981  78.537 116.646  0.00  0.00    -0.090 HD
ATOM     20  H   LIG d   1      -5.995  77.688 117.620  0.00  0.00    -0.090 HD
ATOM     21  H   LIG d   1      -6.439  79.210 118.034  0.00  0.00    -0.090 HD
ENDBRANCH   5  18
BRANCH   3  22
ATOM     22  C   LIG d   1     -10.690  79.435 120.086  0.00  0.00     0.382 C 
ATOM     23  O   LIG d   1     -10.588  80.675 119.926  0.00  0.00    -0.241 OA
ATOM     24  O   LIG d   1     -11.327  78.993 121.061  0.00  0.00    -0.241 OA
ENDBRANCH   3  22
TORSDOF 7
ENDMDL
MODEL 6
REMARK VINA RESULT:      -5.4      2.530      4.728
REMARK  7 active torsions:
REMARK  status: ('A' for Active; 'I' for Inactive)
REMARK    1  A    between atoms: C_2  and  C_3 
REMARK    2  A    between atoms: C_3  and  O_6 
REMARK    3  A    between atoms: C_3  and  C_4 
REMARK    4  A    between atoms: C_7  and  O_6 
REMARK    5  A    between atoms: C_9  and  C_10 
REMARK    6  A    between atoms: N_15  and  C_14 
REMARK    7  A    between atoms: N_20  and  C_19 
REMARK       I    between atoms: C_22  and  N_20 
ROOT
ATOM      1  C   LIG d   1      -9.134  75.747 116.816  0.00  0.00     0.161 C 
ATOM      2  C   LIG d   1     -10.373  75.856 117.470  0.00  0.00     0.016 C 
ATOM      3  C   LIG d   1     -10.999  74.777 118.135  0.00  0.00     0.038 C 
ATOM      4  C   LIG d   1     -10.353  73.546 118.322  0.00  0.00     0.028 C 
ATOM      5  C   LIG d   1      -9.318  73.235 117.246  0.00  0.00    -0.047 C 
ATOM      6  C   LIG d   1      -8.363  74.442 117.105  0.00  0.00     0.091 C 
ENDROOT
BRANCH   1   7
ATOM      7  O   LIG d   1      -8.315  76.892 117.127  0.00  0.00    -0.368 OA
BRANCH   7   8
ATOM      8  C   LIG d   1      -8.594  77.552 118.387  0.00  0.00     0.119 C 
BRANCH   8   9
ATOM      9  C   LIG d   1      -8.515  79.071 118.141  0.00  0.00     0.028 C 
ATOM     10  C   LIG d   1      -9.899  79.741 118.160  0.00  0.00     0.006 C 
ENDBRANCH   8   9
BRANCH   8  11
ATOM     11  C   LIG d   1      -7.509  77.252 119.425  0.00  0.00     0.028 C 
ATOM     12  C   LIG d   1      -7.912  76.138 120.404  0.00  0.00     0.006 C 
ENDBRANCH   8  11
ENDBRANCH   7   8
ENDBRANCH   1   7
BRANCH   6  13
ATOM     13  N   LIG d   1      -7.370  74.256 116.014  0.00  0.00    -0.311 N 
ATOM     14  C   LIG d   1      -6.097  74.634 116.109  0.00  0.00     0.210 C 
ATOM     15  C   LIG d   1      -5.248  74.367 114.862  0.00  0.00     0.109 C 
ATOM     16  O   LIG d   1      -5.582  75.136 117.120  0.00  0.00    -0.276 OA
ATOM     17  H   LIG d   1      -7.696  73.827 115.170  0.00  0.00     0.149 HD
ENDBRANCH   6  13
BRANCH   5  18
ATOM     18  N   LIG d   1      -8.626  71.993 117.639  0.00  0.00     0.381 N 
ATOM     19  H   LIG d   1      -7.636  72.124 117.579  0.00  0.00    -0.090 HD
ATOM     20  H   LIG d   1      -8.886  71.261 117.002  0.00  0.00    -0.090 HD
ATOM     21  H   LIG d   1      -8.880  71.741 118.568  0.00  0.00    -0.090 HD
ENDBRANCH   5  18
BRANCH   3  22
ATOM     22  C   LIG d   1     -12.303  74.912 118.587  0.00  0.00     0.382 C 
ATOM     23  O   LIG d   1     -12.753  74.119 119.449  0.00  0.00    -0.241 OA
ATOM     24  O   LIG d   1     -13.049  75.789 118.111  0.00  0.00    -0.241 OA
ENDBRANCH   3  22
TORSDOF 7
ENDMDL
MODEL 7
REMARK VINA RESULT:      -5.4      2.562      4.937
REMARK  7 active torsions:
REMARK  status: ('A' for Active; 'I' for Inactive)
REMARK    1  A    between atoms: C_2  and  C_3 
REMARK    2  A    between atoms: C_3  and  O_6 
REMARK    3  A    between atoms: C_3  and  C_4 
REMARK    4  A    between atoms: C_7  and  O_6 
REMARK    5  A    between atoms: C_9  and  C_10 
REMARK    6  A    between atoms: N_15  and  C_14 
REMARK    7  A    between atoms: N_20  and  C_19 
REMARK       I    between atoms: C_22  and  N_20 
ROOT
ATOM      1  C   LIG d   1      -7.086  75.865 117.041  0.00  0.00     0.161 C 
ATOM      2  C   LIG d   1      -6.009  76.117 116.175  0.00  0.00     0.016 C 
ATOM      3  C   LIG d   1      -5.398  75.119 115.382  0.00  0.00     0.038 C 
ATOM      4  C   LIG d   1      -5.923  73.822 115.287  0.00  0.00     0.028 C 
ATOM      5  C   LIG d   1      -6.700  73.392 116.527  0.00  0.00    -0.047 C 
ATOM      6  C   LIG d   1      -7.744  74.480 116.868  0.00  0.00     0.091 C 
ENDROOT
BRANCH   1   7
ATOM      7  O   LIG d   1      -8.072  76.908 116.911  0.00  0.00    -0.368 OA
BRANCH   7   8
ATOM      8  C   LIG d   1      -8.243  77.770 118.063  0.00  0.00     0.119 C 
BRANCH   8   9
ATOM      9  C   LIG d   1      -9.724  78.193 118.109  0.00  0.00     0.028 C 
ATOM     10  C   LIG d   1     -10.622  77.115 118.740  0.00  0.00     0.006 C 
ENDBRANCH   8   9
BRANCH   8  11
ATOM     11  C   LIG d   1      -7.454  79.073 117.904  0.00  0.00     0.028 C 
ATOM     12  C   LIG d   1      -8.342  80.324 118.012  0.00  0.00     0.006 C 
ENDBRANCH   8  11
ENDBRANCH   7   8
ENDBRANCH   1   7
BRANCH   6  13
ATOM     13  N   LIG d   1      -8.491  74.177 118.117  0.00  0.00    -0.311 N 
ATOM     14  C   LIG d   1      -9.682  73.583 118.132  0.00  0.00     0.210 C 
ATOM     15  C   LIG d   1     -10.287  73.383 119.526  0.00  0.00     0.109 C 
ATOM     16  O   LIG d   1     -10.282  73.173 117.127  0.00  0.00    -0.276 OA
ATOM     17  H   LIG d   1      -8.063  74.448 118.981  0.00  0.00     0.149 HD
ENDBRANCH   6  13
BRANCH   5  18
ATOM     18  N   LIG d   1      -7.307  72.078 116.239  0.00  0.00     0.381 N 
ATOM     19  H   LIG d   1      -7.905  71.808 116.994  0.00  0.00    -0.090 HD
ATOM     20  H   LIG d   1      -6.576  71.394 116.154  0.00  0.00    -0.090 HD
ATOM     21  H   LIG d   1      -7.830  72.123 115.392  0.00  0.00    -0.090 HD
ENDBRANCH   5  18
BRANCH   3  22
ATOM     22  C   LIG d   1      -4.223  75.405 114.702  0.00  0.00     0.382 C 
ATOM     23  O   LIG d   1      -3.170  74.782 114.981  0.00  0.00    -0.241 OA
ATOM     24  O   LIG d   1      -4.192  76.308 113.845  0.00  0.00    -0.241 OA
ENDBRANCH   3  22
TORSDOF 7
ENDMDL
MODEL 8
REMARK VINA RESULT:      -5.2     10.755     13.663
REMARK  7 active torsions:
REMARK  status: ('A' for Active; 'I' for Inactive)
REMARK    1  A    between atoms: C_2  and  C_3 
REMARK    2  A    between atoms: C_3  and  O_6 
REMARK    3  A    between atoms: C_3  and  C_4 
REMARK    4  A    between atoms: C_7  and  O_6 
REMARK    5  A    between atoms: C_9  and  C_10 
REMARK    6  A    between atoms: N_15  and  C_14 
REMARK    7  A    between atoms: N_20  and  C_19 
REMARK       I    between atoms: C_22  and  N_20 
ROOT
ATOM      1  C   LIG d   1     -16.737  64.076 116.518  0.00  0.00     0.161 C 
ATOM      2  C   LIG d   1     -17.289  62.819 116.217  0.00  0.00     0.016 C 
ATOM      3  C   LIG d   1     -17.863  62.501 114.965  0.00  0.00     0.038 C 
ATOM      4  C   LIG d   1     -17.787  63.376 113.871  0.00  0.00     0.028 C 
ATOM      5  C   LIG d   1     -17.689  64.843 114.274  0.00  0.00    -0.047 C 
ATOM      6  C   LIG d   1     -16.545  65.006 115.302  0.00  0.00     0.091 C 
ENDROOT
BRANCH   1   7
ATOM      7  O   LIG d   1     -15.490  63.906 117.220  0.00  0.00    -0.368 OA
BRANCH   7   8
ATOM      8  C   LIG d   1     -15.550  64.020 118.663  0.00  0.00     0.119 C 
BRANCH   8   9
ATOM      9  C   LIG d   1     -15.044  65.426 119.038  0.00  0.00     0.028 C 
ATOM     10  C   LIG d   1     -16.178  66.352 119.510  0.00  0.00     0.006 C 
ENDBRANCH   8   9
BRANCH   8  11
ATOM     11  C   LIG d   1     -14.581  63.046 119.340  0.00  0.00     0.028 C 
ATOM     12  C   LIG d   1     -14.706  61.612 118.803  0.00  0.00     0.006 C 
ENDBRANCH   8  11
ENDBRANCH   7   8
ENDBRANCH   1   7
BRANCH   6  13
ATOM     13  N   LIG d   1     -16.436  66.397 115.812  0.00  0.00    -0.311 N 
ATOM     14  C   LIG d   1     -15.668  67.327 115.247  0.00  0.00     0.210 C 
ATOM     15  C   LIG d   1     -15.685  68.691 115.944  0.00  0.00     0.109 C 
ATOM     16  O   LIG d   1     -15.001  67.162 114.215  0.00  0.00    -0.276 OA
ATOM     17  H   LIG d   1     -16.969  66.627 116.628  0.00  0.00     0.149 HD
ENDBRANCH   6  13
BRANCH   5  18
ATOM     18  N   LIG d   1     -17.478  65.630 113.045  0.00  0.00     0.381 N 
ATOM     19  H   LIG d   1     -16.774  66.323 113.203  0.00  0.00    -0.090 HD
ATOM     20  H   LIG d   1     -18.334  66.099 112.808  0.00  0.00    -0.090 HD
ATOM     21  H   LIG d   1     -17.202  65.030 112.299  0.00  0.00    -0.090 HD
ENDBRANCH   5  18
BRANCH   3  22
ATOM     22  C   LIG d   1     -18.557  61.311 114.810  0.00  0.00     0.382 C 
ATOM     23  O   LIG d   1     -19.399  60.959 115.670  0.00  0.00    -0.241 OA
ATOM     24  O   LIG d   1     -18.319  60.563 113.842  0.00  0.00    -0.241 OA
ENDBRANCH   3  22
TORSDOF 7
ENDMDL
MODEL 9
REMARK VINA RESULT:      -5.2      2.378      3.582
REMARK  7 active torsions:
REMARK  status: ('A' for Active; 'I' for Inactive)
REMARK    1  A    between atoms: C_2  and  C_3 
REMARK    2  A    between atoms: C_3  and  O_6 
REMARK    3  A    between atoms: C_3  and  C_4 
REMARK    4  A    between atoms: C_7  and  O_6 
REMARK    5  A    between atoms: C_9  and  C_10 
REMARK    6  A    between atoms: N_15  and  C_14 
REMARK    7  A    between atoms: N_20  and  C_19 
REMARK       I    between atoms: C_22  and  N_20 
ROOT
ATOM      1  C   LIG d   1      -7.666  76.407 117.142  0.00  0.00     0.161 C 
ATOM      2  C   LIG d   1      -8.567  75.344 116.961  0.00  0.00     0.016 C 
ATOM      3  C   LIG d   1      -9.922  75.396 117.364  0.00  0.00     0.038 C 
ATOM      4  C   LIG d   1     -10.509  76.577 117.842  0.00  0.00     0.028 C 
ATOM      5  C   LIG d   1      -9.515  77.520 118.510  0.00  0.00    -0.047 C 
ATOM      6  C   LIG d   1      -8.316  77.742 117.560  0.00  0.00     0.091 C 
ENDROOT
BRANCH   1   7
ATOM      7  O   LIG d   1      -6.876  76.586 115.950  0.00  0.00    -0.368 OA
BRANCH   7   8
ATOM      8  C   LIG d   1      -6.497  75.376 115.249  0.00  0.00     0.119 C 
BRANCH   8   9
ATOM      9  C   LIG d   1      -5.276  74.782 115.977  0.00  0.00     0.028 C 
ATOM     10  C   LIG d   1      -4.013  74.781 115.099  0.00  0.00     0.006 C 
ENDBRANCH   8   9
BRANCH   8  11
ATOM     11  C   LIG d   1      -6.013  75.683 113.828  0.00  0.00     0.028 C 
ATOM     12  C   LIG d   1      -7.100  76.331 112.956  0.00  0.00     0.006 C 
ENDBRANCH   8  11
ENDBRANCH   7   8
ENDBRANCH   1   7
BRANCH   6  13
ATOM     13  N   LIG d   1      -7.257  78.587 118.171  0.00  0.00    -0.311 N 
ATOM     14  C   LIG d   1      -7.228  79.914 118.069  0.00  0.00     0.210 C 
ATOM     15  C   LIG d   1      -6.037  80.590 118.756  0.00  0.00     0.109 C 
ATOM     16  O   LIG d   1      -8.092  80.599 117.502  0.00  0.00    -0.276 OA
ATOM     17  H   LIG d   1      -6.532  78.115 118.676  0.00  0.00     0.149 HD
ENDBRANCH   6  13
BRANCH   5  18
ATOM     18  N   LIG d   1     -10.233  78.766 118.837  0.00  0.00     0.381 N 
ATOM     19  H   LIG d   1     -11.103  78.550 119.281  0.00  0.00    -0.090 HD
ATOM     20  H   LIG d   1     -10.429  79.261 117.984  0.00  0.00    -0.090 HD
ATOM     21  H   LIG d   1      -9.677  79.333 119.438  0.00  0.00    -0.090 HD
ENDBRANCH   5  18
BRANCH   3  22
ATOM     22  C   LIG d   1     -10.693  74.244 117.328  0.00  0.00     0.382 C 
ATOM     23  O   LIG d   1     -11.894  74.282 117.691  0.00  0.00    -0.241 OA
ATOM     24  O   LIG d   1     -10.192  73.158 116.979  0.00  0.00    -0.241 OA
ENDBRANCH   3  22
TORSDOF 7
ENDMDL
