MODEL 1
REMARK VINA RESULT:      -6.9      0.000      0.000
REMARK  7 active torsions:
REMARK  status: ('A' for Active; 'I' for Inactive)
REMARK    1  A    between atoms: C_2  and  C_3 
REMARK    2  A    between atoms: C_3  and  O_6 
REMARK    3  A    between atoms: C_3  and  C_4 
REMARK    4  A    between atoms: C_7  and  O_6 
REMARK    5  A    between atoms: C_9  and  C_10 
REMARK    6  A    between atoms: N_15  and  C_14 
REMARK    7  A    between atoms: N_20  and  C_19 
REMARK       I    between atoms: C_22  and  N_20 
ROOT
ATOM      1  C   LIG d   1       0.803  83.820 109.514  0.00  0.00     0.161 C 
ATOM      2  C   LIG d   1       0.460  85.108 109.957  0.00  0.00     0.016 C 
ATOM      3  C   LIG d   1      -0.322  85.352 111.109  0.00  0.00     0.038 C 
ATOM      4  C   LIG d   1      -0.689  84.322 111.988  0.00  0.00     0.028 C 
ATOM      5  C   LIG d   1      -0.794  82.959 111.313  0.00  0.00    -0.047 C 
ATOM      6  C   LIG d   1       0.506  82.689 110.521  0.00  0.00     0.091 C 
ENDROOT
BRANCH   1   7
ATOM      7  O   LIG d   1       2.190  83.791 109.124  0.00  0.00    -0.368 OA
BRANCH   7   8
ATOM      8  C   LIG d   1       3.153  83.676 110.200  0.00  0.00     0.119 C 
BRANCH   8   9
ATOM      9  C   LIG d   1       3.558  85.104 110.614  0.00  0.00     0.028 C 
ATOM     10  C   LIG d   1       3.413  85.339 112.127  0.00  0.00     0.006 C 
ENDBRANCH   8   9
BRANCH   8  11
ATOM     11  C   LIG d   1       4.447  83.011 109.721  0.00  0.00     0.028 C 
ATOM     12  C   LIG d   1       4.224  82.055 108.539  0.00  0.00     0.006 C 
ENDBRANCH   8  11
ENDBRANCH   7   8
ENDBRANCH   1   7
BRANCH   6  13
ATOM     13  N   LIG d   1       0.453  81.413 109.762  0.00  0.00    -0.311 N 
ATOM     14  C   LIG d   1       1.285  80.396 109.979  0.00  0.00     0.210 C 
ATOM     15  C   LIG d   1       1.070  79.180 109.072  0.00  0.00     0.109 C 
ATOM     16  O   LIG d   1       2.159  80.372 110.858  0.00  0.00    -0.276 OA
ATOM     17  H   LIG d   1      -0.247  81.334 109.051  0.00  0.00     0.149 HD
ENDBRANCH   6  13
BRANCH   5  18
ATOM     18  N   LIG d   1      -1.047  81.958 112.367  0.00  0.00     0.381 N 
ATOM     19  H   LIG d   1      -1.277  81.078 111.951  0.00  0.00    -0.090 HD
ATOM     20  H   LIG d   1      -1.829  82.260 112.921  0.00  0.00    -0.090 HD
ATOM     21  H   LIG d   1      -0.240  81.860 112.945  0.00  0.00    -0.090 HD
ENDBRANCH   5  18
BRANCH   3  22
ATOM     22  C   LIG d   1      -0.779  86.635 111.371  0.00  0.00     0.382 C 
ATOM     23  O   LIG d   1       0.041  87.565 111.565  0.00  0.00    -0.241 OA
ATOM     24  O   LIG d   1      -2.000  86.865 111.459  0.00  0.00    -0.241 OA
ENDBRANCH   3  22
TORSDOF 7
ENDMDL
MODEL 2
REMARK VINA RESULT:      -6.4      2.571      4.800
REMARK  7 active torsions:
REMARK  status: ('A' for Active; 'I' for Inactive)
REMARK    1  A    between atoms: C_2  and  C_3 
REMARK    2  A    between atoms: C_3  and  O_6 
REMARK    3  A    between atoms: C_3  and  C_4 
REMARK    4  A    between atoms: C_7  and  O_6 
REMARK    5  A    between atoms: C_9  and  C_10 
REMARK    6  A    between atoms: N_15  and  C_14 
REMARK    7  A    between atoms: N_20  and  C_19 
REMARK       I    between atoms: C_22  and  N_20 
ROOT
ATOM      1  C   LIG d   1       2.087  83.048 112.056  0.00  0.00     0.161 C 
ATOM      2  C   LIG d   1       1.068  82.081 112.057  0.00  0.00     0.016 C 
ATOM      3  C   LIG d   1      -0.309  82.403 112.036  0.00  0.00     0.038 C 
ATOM      4  C   LIG d   1      -0.760  83.719 111.858  0.00  0.00     0.028 C 
ATOM      5  C   LIG d   1       0.225  84.770 112.360  0.00  0.00    -0.047 C 
ATOM      6  C   LIG d   1       1.616  84.485 111.751  0.00  0.00     0.091 C 
ENDROOT
BRANCH   1   7
ATOM      7  O   LIG d   1       3.130  82.657 111.141  0.00  0.00    -0.368 OA
BRANCH   7   8
ATOM      8  C   LIG d   1       2.697  81.997 109.926  0.00  0.00     0.119 C 
BRANCH   8   9
ATOM      9  C   LIG d   1       3.639  80.801 109.688  0.00  0.00     0.028 C 
ATOM     10  C   LIG d   1       2.878  79.522 109.301  0.00  0.00     0.006 C 
ENDBRANCH   8   9
BRANCH   8  11
ATOM     11  C   LIG d   1       2.876  82.903 108.705  0.00  0.00     0.028 C 
ATOM     12  C   LIG d   1       1.545  83.466 108.180  0.00  0.00     0.006 C 
ENDBRANCH   8  11
ENDBRANCH   7   8
ENDBRANCH   1   7
BRANCH   6  13
ATOM     13  N   LIG d   1       2.658  85.417 112.257  0.00  0.00    -0.311 N 
ATOM     14  C   LIG d   1       2.919  86.597 111.698  0.00  0.00     0.210 C 
ATOM     15  C   LIG d   1       4.046  87.393 112.364  0.00  0.00     0.109 C 
ATOM     16  O   LIG d   1       2.302  87.075 110.734  0.00  0.00    -0.276 OA
ATOM     17  H   LIG d   1       3.185  85.122 113.055  0.00  0.00     0.149 HD
ENDBRANCH   6  13
BRANCH   5  18
ATOM     18  N   LIG d   1      -0.309  86.094 111.989  0.00  0.00     0.381 N 
ATOM     19  H   LIG d   1       0.440  86.753 111.917  0.00  0.00    -0.090 HD
ATOM     20  H   LIG d   1      -0.935  86.406 112.711  0.00  0.00    -0.090 HD
ATOM     21  H   LIG d   1      -0.794  86.036 111.121  0.00  0.00    -0.090 HD
ENDBRANCH   5  18
BRANCH   3  22
ATOM     22  C   LIG d   1      -1.251  81.405 112.233  0.00  0.00     0.382 C 
ATOM     23  O   LIG d   1      -1.025  80.240 111.824  0.00  0.00    -0.241 OA
ATOM     24  O   LIG d   1      -2.342  81.664 112.774  0.00  0.00    -0.241 OA
ENDBRANCH   3  22
TORSDOF 7
ENDMDL
MODEL 3
REMARK VINA RESULT:      -6.3      1.542      2.535
REMARK  7 active torsions:
REMARK  status: ('A' for Active; 'I' for Inactive)
REMARK    1  A    between atoms: C_2  and  C_3 
REMARK    2  A    between atoms: C_3  and  O_6 
REMARK    3  A    between atoms: C_3  and  C_4 
REMARK    4  A    between atoms: C_7  and  O_6 
REMARK    5  A    between atoms: C_9  and  C_10 
REMARK    6  A    between atoms: N_15  and  C_14 
REMARK    7  A    between atoms: N_20  and  C_19 
REMARK       I    between atoms: C_22  and  N_20 
ROOT
ATOM      1  C   LIG d   1       1.312  82.883 110.215  0.00  0.00     0.161 C 
ATOM      2  C   LIG d   1       1.519  84.258 110.410  0.00  0.00     0.016 C 
ATOM      3  C   LIG d   1       0.713  85.055 111.255  0.00  0.00     0.038 C 
ATOM      4  C   LIG d   1      -0.269  84.495 112.086  0.00  0.00     0.028 C 
ATOM      5  C   LIG d   1      -0.847  83.191 111.547  0.00  0.00    -0.047 C 
ATOM      6  C   LIG d   1       0.316  82.233 111.198  0.00  0.00     0.091 C 
ENDROOT
BRANCH   1   7
ATOM      7  O   LIG d   1       2.575  82.189 110.250  0.00  0.00    -0.368 OA
BRANCH   7   8
ATOM      8  C   LIG d   1       3.027  81.625 108.994  0.00  0.00     0.119 C 
BRANCH   8   9
ATOM      9  C   LIG d   1       3.587  80.220 109.292  0.00  0.00     0.028 C 
ATOM     10  C   LIG d   1       2.512  79.126 109.186  0.00  0.00     0.006 C 
ENDBRANCH   8   9
BRANCH   8  11
ATOM     11  C   LIG d   1       4.206  82.417 108.420  0.00  0.00     0.028 C 
ATOM     12  C   LIG d   1       4.841  83.368 109.447  0.00  0.00     0.006 C 
ENDBRANCH   8  11
ENDBRANCH   7   8
ENDBRANCH   1   7
BRANCH   6  13
ATOM     13  N   LIG d   1      -0.159  80.965 110.585  0.00  0.00    -0.311 N 
ATOM     14  C   LIG d   1      -0.460  79.877 111.292  0.00  0.00     0.210 C 
ATOM     15  C   LIG d   1      -0.911  78.671 110.462  0.00  0.00     0.109 C 
ATOM     16  O   LIG d   1      -0.428  79.806 112.530  0.00  0.00    -0.276 OA
ATOM     17  H   LIG d   1      -0.244  80.944 109.588  0.00  0.00     0.149 HD
ENDBRANCH   6  13
BRANCH   5  18
ATOM     18  N   LIG d   1      -1.755  82.647 112.574  0.00  0.00     0.381 N 
ATOM     19  H   LIG d   1      -2.666  83.046 112.466  0.00  0.00    -0.090 HD
ATOM     20  H   LIG d   1      -1.406  82.899 113.483  0.00  0.00    -0.090 HD
ATOM     21  H   LIG d   1      -1.806  81.655 112.494  0.00  0.00    -0.090 HD
ENDBRANCH   5  18
BRANCH   3  22
ATOM     22  C   LIG d   1       0.859  86.434 111.245  0.00  0.00     0.382 C 
ATOM     23  O   LIG d   1       1.947  86.946 110.888  0.00  0.00    -0.241 OA
ATOM     24  O   LIG d   1      -0.068  87.170 111.631  0.00  0.00    -0.241 OA
ENDBRANCH   3  22
TORSDOF 7
ENDMDL
MODEL 4
REMARK VINA RESULT:      -6.3      2.468      4.839
REMARK  7 active torsions:
REMARK  status: ('A' for Active; 'I' for Inactive)
REMARK    1  A    between atoms: C_2  and  C_3 
REMARK    2  A    between atoms: C_3  and  O_6 
REMARK    3  A    between atoms: C_3  and  C_4 
REMARK    4  A    between atoms: C_7  and  O_6 
REMARK    5  A    between atoms: C_9  and  C_10 
REMARK    6  A    between atoms: N_15  and  C_14 
REMARK    7  A    between atoms: N_20  and  C_19 
REMARK       I    between atoms: C_22  and  N_20 
ROOT
ATOM      1  C   LIG d   1       1.103  81.735 112.335  0.00  0.00     0.161 C 
ATOM      2  C   LIG d   1       2.243  82.179 111.644  0.00  0.00     0.016 C 
ATOM      3  C   LIG d   1       2.450  81.958 110.262  0.00  0.00     0.038 C 
ATOM      4  C   LIG d   1       1.455  81.406 109.442  0.00  0.00     0.028 C 
ATOM      5  C   LIG d   1       0.495  80.486 110.190  0.00  0.00    -0.047 C 
ATOM      6  C   LIG d   1      -0.043  81.228 111.435  0.00  0.00     0.091 C 
ENDROOT
BRANCH   1   7
ATOM      7  O   LIG d   1       0.629  82.774 113.214  0.00  0.00    -0.368 OA
BRANCH   7   8
ATOM      8  C   LIG d   1       0.831  84.135 112.759  0.00  0.00     0.119 C 
BRANCH   8   9
ATOM      9  C   LIG d   1       1.411  84.937 113.940  0.00  0.00     0.028 C 
ATOM     10  C   LIG d   1       2.895  85.286 113.740  0.00  0.00     0.006 C 
ENDBRANCH   8   9
BRANCH   8  11
ATOM     11  C   LIG d   1      -0.500  84.814 112.423  0.00  0.00     0.028 C 
ATOM     12  C   LIG d   1      -0.807  84.810 110.917  0.00  0.00     0.006 C 
ENDBRANCH   8  11
ENDBRANCH   7   8
ENDBRANCH   1   7
BRANCH   6  13
ATOM     13  N   LIG d   1      -0.924  80.370 112.269  0.00  0.00    -0.311 N 
ATOM     14  C   LIG d   1      -2.032  80.813 112.861  0.00  0.00     0.210 C 
ATOM     15  C   LIG d   1      -2.784  79.768 113.691  0.00  0.00     0.109 C 
ATOM     16  O   LIG d   1      -2.482  81.964 112.749  0.00  0.00    -0.276 OA
ATOM     17  H   LIG d   1      -0.651  79.414 112.387  0.00  0.00     0.149 HD
ENDBRANCH   6  13
BRANCH   5  18
ATOM     18  N   LIG d   1      -0.569  80.091 109.248  0.00  0.00     0.381 N 
ATOM     19  H   LIG d   1      -1.449  80.450 109.560  0.00  0.00    -0.090 HD
ATOM     20  H   LIG d   1      -0.627  79.088 109.226  0.00  0.00    -0.090 HD
ATOM     21  H   LIG d   1      -0.364  80.439 108.337  0.00  0.00    -0.090 HD
ENDBRANCH   5  18
BRANCH   3  22
ATOM     22  C   LIG d   1       3.680  82.256 109.696  0.00  0.00     0.382 C 
ATOM     23  O   LIG d   1       4.046  81.670 108.649  0.00  0.00    -0.241 OA
ATOM     24  O   LIG d   1       4.447  83.070 110.244  0.00  0.00    -0.241 OA
ENDBRANCH   3  22
TORSDOF 7
ENDMDL
MODEL 5
REMARK VINA RESULT:      -6.2      2.620      4.423
REMARK  7 active torsions:
REMARK  status: ('A' for Active; 'I' for Inactive)
REMARK    1  A    between atoms: C_2  and  C_3 
REMARK    2  A    between atoms: C_3  and  O_6 
REMARK    3  A    between atoms: C_3  and  C_4 
REMARK    4  A    between atoms: C_7  and  O_6 
REMARK    5  A    between atoms: C_9  and  C_10 
REMARK    6  A    between atoms: N_15  and  C_14 
REMARK    7  A    between atoms: N_20  and  C_19 
REMARK       I    between atoms: C_22  and  N_20 
ROOT
ATOM      1  C   LIG d   1      -0.024  82.517 111.469  0.00  0.00     0.161 C 
ATOM      2  C   LIG d   1      -1.112  82.176 112.290  0.00  0.00     0.016 C 
ATOM      3  C   LIG d   1      -1.575  80.851 112.458  0.00  0.00     0.038 C 
ATOM      4  C   LIG d   1      -0.881  79.751 111.931  0.00  0.00     0.028 C 
ATOM      5  C   LIG d   1      -0.073  80.086 110.683  0.00  0.00    -0.047 C 
ATOM      6  C   LIG d   1       0.813  81.319 110.975  0.00  0.00     0.091 C 
ENDROOT
BRANCH   1   7
ATOM      7  O   LIG d   1       0.818  83.472 112.145  0.00  0.00    -0.368 OA
BRANCH   7   8
ATOM      8  C   LIG d   1       0.888  84.792 111.553  0.00  0.00     0.119 C 
BRANCH   8   9
ATOM      9  C   LIG d   1       2.221  85.427 111.992  0.00  0.00     0.028 C 
ATOM     10  C   LIG d   1       3.224  85.547 110.832  0.00  0.00     0.006 C 
ENDBRANCH   8   9
BRANCH   8  11
ATOM     11  C   LIG d   1      -0.202  85.712 112.111  0.00  0.00     0.028 C 
ATOM     12  C   LIG d   1      -1.096  86.311 111.014  0.00  0.00     0.006 C 
ENDBRANCH   8  11
ENDBRANCH   7   8
ENDBRANCH   1   7
BRANCH   6  13
ATOM     13  N   LIG d   1       1.575  81.766 109.779  0.00  0.00    -0.311 N 
ATOM     14  C   LIG d   1       2.885  82.005 109.792  0.00  0.00     0.210 C 
ATOM     15  C   LIG d   1       3.469  82.476 108.456  0.00  0.00     0.109 C 
ATOM     16  O   LIG d   1       3.624  81.842 110.774  0.00  0.00    -0.276 OA
ATOM     17  H   LIG d   1       1.058  81.894 108.931  0.00  0.00     0.149 HD
ENDBRANCH   6  13
BRANCH   5  18
ATOM     18  N   LIG d   1       0.706  78.887 110.321  0.00  0.00     0.381 N 
ATOM     19  H   LIG d   1       0.279  78.074 110.717  0.00  0.00    -0.090 HD
ATOM     20  H   LIG d   1       1.632  78.974 110.701  0.00  0.00    -0.090 HD
ATOM     21  H   LIG d   1       0.754  78.798 109.330  0.00  0.00    -0.090 HD
ENDBRANCH   5  18
BRANCH   3  22
ATOM     22  C   LIG d   1      -2.766  80.619 113.128  0.00  0.00     0.382 C 
ATOM     23  O   LIG d   1      -2.938  79.541 113.747  0.00  0.00    -0.241 OA
ATOM     24  O   LIG d   1      -3.689  81.454 113.083  0.00  0.00    -0.241 OA
ENDBRANCH   3  22
TORSDOF 7
ENDMDL
MODEL 6
REMARK VINA RESULT:      -5.4      2.438      4.935
REMARK  7 active torsions:
REMARK  status: ('A' for Active; 'I' for Inactive)
REMARK    1  A    between atoms: C_2  and  C_3 
REMARK    2  A    between atoms: C_3  and  O_6 
REMARK    3  A    between atoms: C_3  and  C_4 
REMARK    4  A    between atoms: C_7  and  O_6 
REMARK    5  A    between atoms: C_9  and  C_10 
REMARK    6  A    between atoms: N_15  and  C_14 
REMARK    7  A    between atoms: N_20  and  C_19 
REMARK       I    between atoms: C_22  and  N_20 
ROOT
ATOM      1  C   LIG d   1       0.664  82.013 111.096  0.00  0.00     0.161 C 
ATOM      2  C   LIG d   1       1.596  82.538 110.185  0.00  0.00     0.016 C 
ATOM      3  C   LIG d   1       2.255  81.757 109.209  0.00  0.00     0.038 C 
ATOM      4  C   LIG d   1       1.912  80.417 108.976  0.00  0.00     0.028 C 
ATOM      5  C   LIG d   1       1.340  79.716 110.204  0.00  0.00    -0.047 C 
ATOM      6  C   LIG d   1       0.195  80.577 110.785  0.00  0.00     0.091 C 
ENDROOT
BRANCH   1   7
ATOM      7  O   LIG d   1      -0.468  82.899 111.202  0.00  0.00    -0.368 OA
BRANCH   7   8
ATOM      8  C   LIG d   1      -0.520  83.729 112.388  0.00  0.00     0.119 C 
BRANCH   8   9
ATOM      9  C   LIG d   1      -0.615  85.195 111.922  0.00  0.00     0.028 C 
ATOM     10  C   LIG d   1      -0.972  85.315 110.431  0.00  0.00     0.006 C 
ENDBRANCH   8   9
BRANCH   8  11
ATOM     11  C   LIG d   1       0.784  83.641 113.186  0.00  0.00     0.028 C 
ATOM     12  C   LIG d   1       1.132  84.954 113.905  0.00  0.00     0.006 C 
ENDBRANCH   8  11
ENDBRANCH   7   8
ENDBRANCH   1   7
BRANCH   6  13
ATOM     13  N   LIG d   1      -0.364  80.005 112.038  0.00  0.00    -0.311 N 
ATOM     14  C   LIG d   1      -1.384  79.149 112.061  0.00  0.00     0.210 C 
ATOM     15  C   LIG d   1      -1.817  78.697 113.460  0.00  0.00     0.109 C 
ATOM     16  O   LIG d   1      -1.951  78.695 111.056  0.00  0.00    -0.276 OA
ATOM     17  H   LIG d   1       0.056  80.295 112.899  0.00  0.00     0.149 HD
ENDBRANCH   6  13
BRANCH   5  18
ATOM     18  N   LIG d   1       0.899  78.373 109.785  0.00  0.00     0.381 N 
ATOM     19  H   LIG d   1       1.136  77.703 110.490  0.00  0.00    -0.090 HD
ATOM     20  H   LIG d   1       1.377  78.122 108.938  0.00  0.00    -0.090 HD
ATOM     21  H   LIG d   1      -0.086  78.369 109.632  0.00  0.00    -0.090 HD
ENDBRANCH   5  18
BRANCH   3  22
ATOM     22  C   LIG d   1       3.298  82.306 108.479  0.00  0.00     0.382 C 
ATOM     23  O   LIG d   1       3.060  83.149 107.581  0.00  0.00    -0.241 OA
ATOM     24  O   LIG d   1       4.471  81.936 108.677  0.00  0.00    -0.241 OA
ENDBRANCH   3  22
TORSDOF 7
ENDMDL
MODEL 7
REMARK VINA RESULT:      -5.4      2.271      4.487
REMARK  7 active torsions:
REMARK  status: ('A' for Active; 'I' for Inactive)
REMARK    1  A    between atoms: C_2  and  C_3 
REMARK    2  A    between atoms: C_3  and  O_6 
REMARK    3  A    between atoms: C_3  and  C_4 
REMARK    4  A    between atoms: C_7  and  O_6 
REMARK    5  A    between atoms: C_9  and  C_10 
REMARK    6  A    between atoms: N_15  and  C_14 
REMARK    7  A    between atoms: N_20  and  C_19 
REMARK       I    between atoms: C_22  and  N_20 
ROOT
ATOM      1  C   LIG d   1       0.078  82.242 111.145  0.00  0.00     0.161 C 
ATOM      2  C   LIG d   1      -0.496  83.395 111.705  0.00  0.00     0.016 C 
ATOM      3  C   LIG d   1      -0.361  84.684 111.140  0.00  0.00     0.038 C 
ATOM      4  C   LIG d   1       0.236  84.886 109.886  0.00  0.00     0.028 C 
ATOM      5  C   LIG d   1       1.269  83.823 109.530  0.00  0.00    -0.047 C 
ATOM      6  C   LIG d   1       0.638  82.425 109.719  0.00  0.00     0.091 C 
ENDROOT
BRANCH   1   7
ATOM      7  O   LIG d   1      -0.873  81.159 111.175  0.00  0.00    -0.368 OA
BRANCH   7   8
ATOM      8  C   LIG d   1      -0.882  80.351 112.377  0.00  0.00     0.119 C 
BRANCH   8   9
ATOM      9  C   LIG d   1      -0.920  78.873 111.942  0.00  0.00     0.028 C 
ATOM     10  C   LIG d   1      -0.880  78.711 110.413  0.00  0.00     0.006 C 
ENDBRANCH   8   9
BRANCH   8  11
ATOM     11  C   LIG d   1      -2.165  80.569 113.186  0.00  0.00     0.028 C 
ATOM     12  C   LIG d   1      -2.440  79.433 114.184  0.00  0.00     0.006 C 
ENDBRANCH   8  11
ENDBRANCH   7   8
ENDBRANCH   1   7
BRANCH   6  13
ATOM     13  N   LIG d   1       1.608  81.326 109.472  0.00  0.00    -0.311 N 
ATOM     14  C   LIG d   1       2.779  81.228 110.099  0.00  0.00     0.210 C 
ATOM     15  C   LIG d   1       3.637  80.029 109.681  0.00  0.00     0.109 C 
ATOM     16  O   LIG d   1       3.175  82.002 110.983  0.00  0.00    -0.276 OA
ATOM     17  H   LIG d   1       1.353  80.637 108.792  0.00  0.00     0.149 HD
ENDBRANCH   6  13
BRANCH   5  18
ATOM     18  N   LIG d   1       1.709  84.076 108.145  0.00  0.00     0.381 N 
ATOM     19  H   LIG d   1       2.575  84.578 108.151  0.00  0.00    -0.090 HD
ATOM     20  H   LIG d   1       1.020  84.642 107.683  0.00  0.00    -0.090 HD
ATOM     21  H   LIG d   1       1.821  83.213 107.659  0.00  0.00    -0.090 HD
ENDBRANCH   5  18
BRANCH   3  22
ATOM     22  C   LIG d   1      -0.790  85.795 111.851  0.00  0.00     0.382 C 
ATOM     23  O   LIG d   1      -0.656  86.942 111.362  0.00  0.00    -0.241 OA
ATOM     24  O   LIG d   1      -1.269  85.667 112.994  0.00  0.00    -0.241 OA
ENDBRANCH   3  22
TORSDOF 7
ENDMDL
MODEL 8
REMARK VINA RESULT:      -5.3      2.000      2.667
REMARK  7 active torsions:
REMARK  status: ('A' for Active; 'I' for Inactive)
REMARK    1  A    between atoms: C_2  and  C_3 
REMARK    2  A    between atoms: C_3  and  O_6 
REMARK    3  A    between atoms: C_3  and  C_4 
REMARK    4  A    between atoms: C_7  and  O_6 
REMARK    5  A    between atoms: C_9  and  C_10 
REMARK    6  A    between atoms: N_15  and  C_14 
REMARK    7  A    between atoms: N_20  and  C_19 
REMARK       I    between atoms: C_22  and  N_20 
ROOT
ATOM      1  C   LIG d   1       0.527  82.825 110.396  0.00  0.00     0.161 C 
ATOM      2  C   LIG d   1       1.030  84.066 110.822  0.00  0.00     0.016 C 
ATOM      3  C   LIG d   1       1.469  84.316 112.142  0.00  0.00     0.038 C 
ATOM      4  C   LIG d   1       1.577  83.291 113.094  0.00  0.00     0.028 C 
ATOM      5  C   LIG d   1       0.607  82.139 112.856  0.00  0.00    -0.047 C 
ATOM      6  C   LIG d   1       0.741  81.665 111.391  0.00  0.00     0.091 C 
ENDROOT
BRANCH   1   7
ATOM      7  O   LIG d   1       1.081  82.489 109.108  0.00  0.00    -0.368 OA
BRANCH   7   8
ATOM      8  C   LIG d   1       2.067  83.410 108.579  0.00  0.00     0.119 C 
BRANCH   8   9
ATOM      9  C   LIG d   1       1.571  83.873 107.195  0.00  0.00     0.028 C 
ATOM     10  C   LIG d   1       0.755  85.175 107.270  0.00  0.00     0.006 C 
ENDBRANCH   8   9
BRANCH   8  11
ATOM     11  C   LIG d   1       3.402  82.706 108.317  0.00  0.00     0.028 C 
ATOM     12  C   LIG d   1       4.239  82.522 109.593  0.00  0.00     0.006 C 
ENDBRANCH   8  11
ENDBRANCH   7   8
ENDBRANCH   1   7
BRANCH   6  13
ATOM     13  N   LIG d   1      -0.232  80.595 111.050  0.00  0.00    -0.311 N 
ATOM     14  C   LIG d   1       0.077  79.532 110.310  0.00  0.00     0.210 C 
ATOM     15  C   LIG d   1      -1.081  78.559 110.061  0.00  0.00     0.109 C 
ATOM     16  O   LIG d   1       1.207  79.285 109.863  0.00  0.00    -0.276 OA
ATOM     17  H   LIG d   1      -1.165  80.699 111.398  0.00  0.00     0.149 HD
ENDBRANCH   6  13
BRANCH   5  18
ATOM     18  N   LIG d   1       0.922  81.082 113.836  0.00  0.00     0.381 N 
ATOM     19  H   LIG d   1       0.542  81.325 114.730  0.00  0.00    -0.090 HD
ATOM     20  H   LIG d   1       1.920  81.009 113.927  0.00  0.00    -0.090 HD
ATOM     21  H   LIG d   1       0.544  80.212 113.532  0.00  0.00    -0.090 HD
ENDBRANCH   5  18
BRANCH   3  22
ATOM     22  C   LIG d   1       1.769  85.612 112.533  0.00  0.00     0.382 C 
ATOM     23  O   LIG d   1       0.942  86.270 113.210  0.00  0.00    -0.241 OA
ATOM     24  O   LIG d   1       2.836  86.148 112.179  0.00  0.00    -0.241 OA
ENDBRANCH   3  22
TORSDOF 7
ENDMDL
MODEL 9
REMARK VINA RESULT:      -5.3      2.248      3.904
REMARK  7 active torsions:
REMARK  status: ('A' for Active; 'I' for Inactive)
REMARK    1  A    between atoms: C_2  and  C_3 
REMARK    2  A    between atoms: C_3  and  O_6 
REMARK    3  A    between atoms: C_3  and  C_4 
REMARK    4  A    between atoms: C_7  and  O_6 
REMARK    5  A    between atoms: C_9  and  C_10 
REMARK    6  A    between atoms: N_15  and  C_14 
REMARK    7  A    between atoms: N_20  and  C_19 
REMARK       I    between atoms: C_22  and  N_20 
ROOT
ATOM      1  C   LIG d   1       1.080  81.604 111.199  0.00  0.00     0.161 C 
ATOM      2  C   LIG d   1       1.318  82.693 110.344  0.00  0.00     0.016 C 
ATOM      3  C   LIG d   1       1.534  84.012 110.806  0.00  0.00     0.038 C 
ATOM      4  C   LIG d   1       1.676  84.306 112.170  0.00  0.00     0.028 C 
ATOM      5  C   LIG d   1       0.942  83.328 113.080  0.00  0.00    -0.047 C 
ATOM      6  C   LIG d   1       1.341  81.886 112.693  0.00  0.00     0.091 C 
ENDROOT
BRANCH   1   7
ATOM      7  O   LIG d   1       1.845  80.463 110.763  0.00  0.00    -0.368 OA
BRANCH   7   8
ATOM      8  C   LIG d   1       2.012  80.318 109.331  0.00  0.00     0.119 C 
BRANCH   8   9
ATOM      9  C   LIG d   1       1.219  79.070 108.896  0.00  0.00     0.028 C 
ATOM     10  C   LIG d   1      -0.284  79.356 108.737  0.00  0.00     0.006 C 
ENDBRANCH   8   9
BRANCH   8  11
ATOM     11  C   LIG d   1       3.470  80.019 108.968  0.00  0.00     0.028 C 
ATOM     12  C   LIG d   1       4.329  81.288 108.860  0.00  0.00     0.006 C 
ENDBRANCH   8  11
ENDBRANCH   7   8
ENDBRANCH   1   7
BRANCH   6  13
ATOM     13  N   LIG d   1       0.604  80.863 113.480  0.00  0.00    -0.311 N 
ATOM     14  C   LIG d   1      -0.596  80.398 113.135  0.00  0.00     0.210 C 
ATOM     15  C   LIG d   1      -1.188  79.362 114.096  0.00  0.00     0.109 C 
ATOM     16  O   LIG d   1      -1.211  80.721 112.108  0.00  0.00    -0.276 OA
ATOM     17  H   LIG d   1       1.044  80.522 114.312  0.00  0.00     0.149 HD
ENDBRANCH   6  13
BRANCH   5  18
ATOM     18  N   LIG d   1       1.287  83.670 114.473  0.00  0.00     0.381 N 
ATOM     19  H   LIG d   1       0.480  84.025 114.945  0.00  0.00    -0.090 HD
ATOM     20  H   LIG d   1       1.990  84.388 114.467  0.00  0.00    -0.090 HD
ATOM     21  H   LIG d   1       1.630  82.863 114.947  0.00  0.00    -0.090 HD
ENDBRANCH   5  18
BRANCH   3  22
ATOM     22  C   LIG d   1       1.569  85.060 109.898  0.00  0.00     0.382 C 
ATOM     23  O   LIG d   1       1.935  86.201 110.272  0.00  0.00    -0.241 OA
ATOM     24  O   LIG d   1       1.199  84.890 108.722  0.00  0.00    -0.241 OA
ENDBRANCH   3  22
TORSDOF 7
ENDMDL
