MODEL 1
REMARK VINA RESULT:      -5.8      0.000      0.000
REMARK  7 active torsions:
REMARK  status: ('A' for Active; 'I' for Inactive)
REMARK    1  A    between atoms: C_2  and  C_3 
REMARK    2  A    between atoms: C_3  and  O_6 
REMARK    3  A    between atoms: C_3  and  C_4 
REMARK    4  A    between atoms: C_7  and  O_6 
REMARK    5  A    between atoms: C_9  and  C_10 
REMARK    6  A    between atoms: N_15  and  C_14 
REMARK    7  A    between atoms: N_20  and  C_19 
REMARK       I    between atoms: C_22  and  N_20 
ROOT
ATOM      1  C   LIG d   1      -5.019  92.439 117.987  0.00  0.00     0.161 C 
ATOM      2  C   LIG d   1      -5.184  91.527 116.932  0.00  0.00     0.016 C 
ATOM      3  C   LIG d   1      -6.241  91.603 115.996  0.00  0.00     0.038 C 
ATOM      4  C   LIG d   1      -7.123  92.694 115.960  0.00  0.00     0.028 C 
ATOM      5  C   LIG d   1      -7.300  93.374 117.314  0.00  0.00    -0.047 C 
ATOM      6  C   LIG d   1      -5.906  93.699 117.898  0.00  0.00     0.091 C 
ENDROOT
BRANCH   1   7
ATOM      7  O   LIG d   1      -3.631  92.811 118.098  0.00  0.00    -0.368 OA
BRANCH   7   8
ATOM      8  C   LIG d   1      -2.883  92.173 119.162  0.00  0.00     0.119 C 
BRANCH   8   9
ATOM      9  C   LIG d   1      -2.126  93.279 119.924  0.00  0.00     0.028 C 
ATOM     10  C   LIG d   1      -0.639  93.346 119.538  0.00  0.00     0.006 C 
ENDBRANCH   8   9
BRANCH   8  11
ATOM     11  C   LIG d   1      -1.796  91.250 118.603  0.00  0.00     0.028 C 
ATOM     12  C   LIG d   1      -2.258  89.789 118.484  0.00  0.00     0.006 C 
ENDBRANCH   8  11
ENDBRANCH   7   8
ENDBRANCH   1   7
BRANCH   6  13
ATOM     13  N   LIG d   1      -5.986  94.289 119.260  0.00  0.00    -0.311 N 
ATOM     14  C   LIG d   1      -5.284  95.356 119.638  0.00  0.00     0.210 C 
ATOM     15  C   LIG d   1      -5.500  95.790 121.092  0.00  0.00     0.109 C 
ATOM     16  O   LIG d   1      -4.528  96.004 118.899  0.00  0.00    -0.276 OA
ATOM     17  H   LIG d   1      -6.600  93.845 119.914  0.00  0.00     0.149 HD
ENDBRANCH   6  13
BRANCH   5  18
ATOM     18  N   LIG d   1      -8.133  94.573 117.105  0.00  0.00     0.381 N 
ATOM     19  H   LIG d   1      -7.579  95.396 117.230  0.00  0.00    -0.090 HD
ATOM     20  H   LIG d   1      -8.869  94.581 117.789  0.00  0.00    -0.090 HD
ATOM     21  H   LIG d   1      -8.522  94.562 116.188  0.00  0.00    -0.090 HD
ENDBRANCH   5  18
BRANCH   3  22
ATOM     22  C   LIG d   1      -6.447  90.561 115.105  0.00  0.00     0.382 C 
ATOM     23  O   LIG d   1      -7.451  90.567 114.354  0.00  0.00    -0.241 OA
ATOM     24  O   LIG d   1      -5.665  89.592 115.076  0.00  0.00    -0.241 OA
ENDBRANCH   3  22
TORSDOF 7
ENDMDL
MODEL 2
REMARK VINA RESULT:      -5.6     16.459     18.615
REMARK  7 active torsions:
REMARK  status: ('A' for Active; 'I' for Inactive)
REMARK    1  A    between atoms: C_2  and  C_3 
REMARK    2  A    between atoms: C_3  and  O_6 
REMARK    3  A    between atoms: C_3  and  C_4 
REMARK    4  A    between atoms: C_7  and  O_6 
REMARK    5  A    between atoms: C_9  and  C_10 
REMARK    6  A    between atoms: N_15  and  C_14 
REMARK    7  A    between atoms: N_20  and  C_19 
REMARK       I    between atoms: C_22  and  N_20 
ROOT
ATOM      1  C   LIG d   1      -3.125  75.272 116.473  0.00  0.00     0.161 C 
ATOM      2  C   LIG d   1      -3.422  76.016 115.319  0.00  0.00     0.016 C 
ATOM      3  C   LIG d   1      -2.433  76.552 114.463  0.00  0.00     0.038 C 
ATOM      4  C   LIG d   1      -1.073  76.250 114.620  0.00  0.00     0.028 C 
ATOM      5  C   LIG d   1      -0.688  75.921 116.059  0.00  0.00    -0.047 C 
ATOM      6  C   LIG d   1      -1.649  74.838 116.600  0.00  0.00     0.091 C 
ENDROOT
BRANCH   1   7
ATOM      7  O   LIG d   1      -3.993  74.124 116.552  0.00  0.00    -0.368 OA
BRANCH   7   8
ATOM      8  C   LIG d   1      -5.161  74.149 115.695  0.00  0.00     0.119 C 
BRANCH   8   9
ATOM      9  C   LIG d   1      -6.335  74.701 116.527  0.00  0.00     0.028 C 
ATOM     10  C   LIG d   1      -7.134  75.777 115.773  0.00  0.00     0.006 C 
ENDBRANCH   8   9
BRANCH   8  11
ATOM     11  C   LIG d   1      -5.583  72.734 115.287  0.00  0.00     0.028 C 
ATOM     12  C   LIG d   1      -6.484  72.057 116.332  0.00  0.00     0.006 C 
ENDBRANCH   8  11
ENDBRANCH   7   8
ENDBRANCH   1   7
BRANCH   6  13
ATOM     13  N   LIG d   1      -1.396  74.518 118.029  0.00  0.00    -0.311 N 
ATOM     14  C   LIG d   1      -0.569  73.554 118.429  0.00  0.00     0.210 C 
ATOM     15  C   LIG d   1      -0.468  73.377 119.948  0.00  0.00     0.109 C 
ATOM     16  O   LIG d   1       0.116  72.850 117.672  0.00  0.00    -0.276 OA
ATOM     17  H   LIG d   1      -1.887  75.061 118.712  0.00  0.00     0.149 HD
ENDBRANCH   6  13
BRANCH   5  18
ATOM     18  N   LIG d   1       0.723  75.491 116.056  0.00  0.00     0.381 N 
ATOM     19  H   LIG d   1       1.320  76.287 116.166  0.00  0.00    -0.090 HD
ATOM     20  H   LIG d   1       0.931  75.062 115.171  0.00  0.00    -0.090 HD
ATOM     21  H   LIG d   1       0.884  74.842 116.794  0.00  0.00    -0.090 HD
ENDBRANCH   5  18
BRANCH   3  22
ATOM     22  C   LIG d   1      -2.800  77.434 113.457  0.00  0.00     0.382 C 
ATOM     23  O   LIG d   1      -3.321  78.537 113.750  0.00  0.00    -0.241 OA
ATOM     24  O   LIG d   1      -2.656  77.122 112.260  0.00  0.00    -0.241 OA
ENDBRANCH   3  22
TORSDOF 7
ENDMDL
MODEL 3
REMARK VINA RESULT:      -5.3     33.439     35.135
REMARK  7 active torsions:
REMARK  status: ('A' for Active; 'I' for Inactive)
REMARK    1  A    between atoms: C_2  and  C_3 
REMARK    2  A    between atoms: C_3  and  O_6 
REMARK    3  A    between atoms: C_3  and  C_4 
REMARK    4  A    between atoms: C_7  and  O_6 
REMARK    5  A    between atoms: C_9  and  C_10 
REMARK    6  A    between atoms: N_15  and  C_14 
REMARK    7  A    between atoms: N_20  and  C_19 
REMARK       I    between atoms: C_22  and  N_20 
ROOT
ATOM      1  C   LIG d   1       0.018  57.649 118.667  0.00  0.00     0.161 C 
ATOM      2  C   LIG d   1       0.389  58.525 117.633  0.00  0.00     0.016 C 
ATOM      3  C   LIG d   1      -0.298  58.609 116.401  0.00  0.00     0.038 C 
ATOM      4  C   LIG d   1      -1.503  57.927 116.175  0.00  0.00     0.028 C 
ATOM      5  C   LIG d   1      -1.639  56.650 116.998  0.00  0.00    -0.047 C 
ATOM      6  C   LIG d   1      -1.359  56.977 118.482  0.00  0.00     0.091 C 
ENDROOT
BRANCH   1   7
ATOM      7  O   LIG d   1       0.074  58.336 119.933  0.00  0.00    -0.368 OA
BRANCH   7   8
ATOM      8  C   LIG d   1      -0.342  59.724 119.924  0.00  0.00     0.119 C 
BRANCH   8   9
ATOM      9  C   LIG d   1       0.614  60.500 120.850  0.00  0.00     0.028 C 
ATOM     10  C   LIG d   1       2.064  59.998 120.751  0.00  0.00     0.006 C 
ENDBRANCH   8   9
BRANCH   8  11
ATOM     11  C   LIG d   1      -1.733  59.892 120.544  0.00  0.00     0.028 C 
ATOM     12  C   LIG d   1      -2.843  60.027 119.490  0.00  0.00     0.006 C 
ENDBRANCH   8  11
ENDBRANCH   7   8
ENDBRANCH   1   7
BRANCH   6  13
ATOM     13  N   LIG d   1      -1.388  55.768 119.345  0.00  0.00    -0.311 N 
ATOM     14  C   LIG d   1      -2.223  55.620 120.372  0.00  0.00     0.210 C 
ATOM     15  C   LIG d   1      -2.074  54.304 121.143  0.00  0.00     0.109 C 
ATOM     16  O   LIG d   1      -3.095  56.439 120.699  0.00  0.00    -0.276 OA
ATOM     17  H   LIG d   1      -0.735  55.039 119.131  0.00  0.00     0.149 HD
ENDBRANCH   6  13
BRANCH   5  18
ATOM     18  N   LIG d   1      -2.994  56.114 116.769  0.00  0.00     0.381 N 
ATOM     19  H   LIG d   1      -3.545  56.787 116.274  0.00  0.00    -0.090 HD
ATOM     20  H   LIG d   1      -3.430  55.943 117.658  0.00  0.00    -0.090 HD
ATOM     21  H   LIG d   1      -2.942  55.268 116.247  0.00  0.00    -0.090 HD
ENDBRANCH   5  18
BRANCH   3  22
ATOM     22  C   LIG d   1       0.242  59.354 115.363  0.00  0.00     0.382 C 
ATOM     23  O   LIG d   1       1.409  59.804 115.455  0.00  0.00    -0.241 OA
ATOM     24  O   LIG d   1      -0.440  59.618 114.354  0.00  0.00    -0.241 OA
ENDBRANCH   3  22
TORSDOF 7
ENDMDL
MODEL 4
REMARK VINA RESULT:      -5.3     14.421     17.150
REMARK  7 active torsions:
REMARK  status: ('A' for Active; 'I' for Inactive)
REMARK    1  A    between atoms: C_2  and  C_3 
REMARK    2  A    between atoms: C_3  and  O_6 
REMARK    3  A    between atoms: C_3  and  C_4 
REMARK    4  A    between atoms: C_7  and  O_6 
REMARK    5  A    between atoms: C_9  and  C_10 
REMARK    6  A    between atoms: N_15  and  C_14 
REMARK    7  A    between atoms: N_20  and  C_19 
REMARK       I    between atoms: C_22  and  N_20 
ROOT
ATOM      1  C   LIG d   1      -3.901  76.053 116.887  0.00  0.00     0.161 C 
ATOM      2  C   LIG d   1      -5.159  76.603 117.184  0.00  0.00     0.016 C 
ATOM      3  C   LIG d   1      -5.514  77.939 116.891  0.00  0.00     0.038 C 
ATOM      4  C   LIG d   1      -4.680  78.779 116.138  0.00  0.00     0.028 C 
ATOM      5  C   LIG d   1      -3.201  78.429 116.256  0.00  0.00    -0.047 C 
ATOM      6  C   LIG d   1      -3.018  76.921 115.966  0.00  0.00     0.091 C 
ENDROOT
BRANCH   1   7
ATOM      7  O   LIG d   1      -4.063  74.735 116.328  0.00  0.00    -0.368 OA
BRANCH   7   8
ATOM      8  C   LIG d   1      -5.315  74.481 115.645  0.00  0.00     0.119 C 
BRANCH   8   9
ATOM      9  C   LIG d   1      -5.692  73.009 115.900  0.00  0.00     0.028 C 
ATOM     10  C   LIG d   1      -6.693  72.852 117.057  0.00  0.00     0.006 C 
ENDBRANCH   8   9
BRANCH   8  11
ATOM     11  C   LIG d   1      -5.156  74.602 114.126  0.00  0.00     0.028 C 
ATOM     12  C   LIG d   1      -5.841  75.853 113.553  0.00  0.00     0.006 C 
ENDBRANCH   8  11
ENDBRANCH   7   8
ENDBRANCH   1   7
BRANCH   6  13
ATOM     13  N   LIG d   1      -1.611  76.477 116.142  0.00  0.00    -0.311 N 
ATOM     14  C   LIG d   1      -0.830  76.096 115.132  0.00  0.00     0.210 C 
ATOM     15  C   LIG d   1       0.581  75.656 115.536  0.00  0.00     0.109 C 
ATOM     16  O   LIG d   1      -1.162  76.110 113.937  0.00  0.00    -0.276 OA
ATOM     17  H   LIG d   1      -1.250  76.464 117.076  0.00  0.00     0.149 HD
ENDBRANCH   6  13
BRANCH   5  18
ATOM     18  N   LIG d   1      -2.462  79.292 115.316  0.00  0.00     0.381 N 
ATOM     19  H   LIG d   1      -1.750  79.796 115.806  0.00  0.00    -0.090 HD
ATOM     20  H   LIG d   1      -3.099  79.958 114.915  0.00  0.00    -0.090 HD
ATOM     21  H   LIG d   1      -2.051  78.740 114.596  0.00  0.00    -0.090 HD
ENDBRANCH   5  18
BRANCH   3  22
ATOM     22  C   LIG d   1      -6.699  78.460 117.387  0.00  0.00     0.382 C 
ATOM     23  O   LIG d   1      -7.007  79.654 117.151  0.00  0.00    -0.241 OA
ATOM     24  O   LIG d   1      -7.443  77.766 118.105  0.00  0.00    -0.241 OA
ENDBRANCH   3  22
TORSDOF 7
ENDMDL
MODEL 5
REMARK VINA RESULT:      -5.3     16.395     18.123
REMARK  7 active torsions:
REMARK  status: ('A' for Active; 'I' for Inactive)
REMARK    1  A    between atoms: C_2  and  C_3 
REMARK    2  A    between atoms: C_3  and  O_6 
REMARK    3  A    between atoms: C_3  and  C_4 
REMARK    4  A    between atoms: C_7  and  O_6 
REMARK    5  A    between atoms: C_9  and  C_10 
REMARK    6  A    between atoms: N_15  and  C_14 
REMARK    7  A    between atoms: N_20  and  C_19 
REMARK       I    between atoms: C_22  and  N_20 
ROOT
ATOM      1  C   LIG d   1      -2.775  74.744 116.178  0.00  0.00     0.161 C 
ATOM      2  C   LIG d   1      -1.919  75.652 115.533  0.00  0.00     0.016 C 
ATOM      3  C   LIG d   1      -2.329  76.488 114.469  0.00  0.00     0.038 C 
ATOM      4  C   LIG d   1      -3.672  76.582 114.076  0.00  0.00     0.028 C 
ATOM      5  C   LIG d   1      -4.476  75.317 114.359  0.00  0.00    -0.047 C 
ATOM      6  C   LIG d   1      -4.271  74.912 115.836  0.00  0.00     0.091 C 
ENDROOT
BRANCH   1   7
ATOM      7  O   LIG d   1      -2.576  74.813 117.603  0.00  0.00    -0.368 OA
BRANCH   7   8
ATOM      8  C   LIG d   1      -1.208  74.987 118.048  0.00  0.00     0.119 C 
BRANCH   8   9
ATOM      9  C   LIG d   1      -0.723  73.631 118.596  0.00  0.00     0.028 C 
ATOM     10  C   LIG d   1       0.661  73.239 118.050  0.00  0.00     0.006 C 
ENDBRANCH   8   9
BRANCH   8  11
ATOM     11  C   LIG d   1      -1.126  75.955 119.232  0.00  0.00     0.028 C 
ATOM     12  C   LIG d   1      -2.370  76.849 119.358  0.00  0.00     0.006 C 
ENDBRANCH   8  11
ENDBRANCH   7   8
ENDBRANCH   1   7
BRANCH   6  13
ATOM     13  N   LIG d   1      -4.955  73.638 116.175  0.00  0.00    -0.311 N 
ATOM     14  C   LIG d   1      -6.193  73.578 116.664  0.00  0.00     0.210 C 
ATOM     15  C   LIG d   1      -6.702  72.164 116.964  0.00  0.00     0.109 C 
ATOM     16  O   LIG d   1      -6.929  74.559 116.848  0.00  0.00    -0.276 OA
ATOM     17  H   LIG d   1      -4.442  72.791 116.028  0.00  0.00     0.149 HD
ENDBRANCH   6  13
BRANCH   5  18
ATOM     18  N   LIG d   1      -5.885  75.601 114.028  0.00  0.00     0.381 N 
ATOM     19  H   LIG d   1      -6.358  75.958 114.835  0.00  0.00    -0.090 HD
ATOM     20  H   LIG d   1      -6.334  74.745 113.753  0.00  0.00    -0.090 HD
ATOM     21  H   LIG d   1      -5.934  76.264 113.285  0.00  0.00    -0.090 HD
ENDBRANCH   5  18
BRANCH   3  22
ATOM     22  C   LIG d   1      -1.383  77.212 113.760  0.00  0.00     0.382 C 
ATOM     23  O   LIG d   1      -1.132  76.917 112.567  0.00  0.00    -0.241 OA
ATOM     24  O   LIG d   1      -0.746  78.129 114.312  0.00  0.00    -0.241 OA
ENDBRANCH   3  22
TORSDOF 7
ENDMDL
MODEL 6
REMARK VINA RESULT:      -5.2     33.810     35.644
REMARK  7 active torsions:
REMARK  status: ('A' for Active; 'I' for Inactive)
REMARK    1  A    between atoms: C_2  and  C_3 
REMARK    2  A    between atoms: C_3  and  O_6 
REMARK    3  A    between atoms: C_3  and  C_4 
REMARK    4  A    between atoms: C_7  and  O_6 
REMARK    5  A    between atoms: C_9  and  C_10 
REMARK    6  A    between atoms: N_15  and  C_14 
REMARK    7  A    between atoms: N_20  and  C_19 
REMARK       I    between atoms: C_22  and  N_20 
ROOT
ATOM      1  C   LIG d   1       0.052  58.253 118.562  0.00  0.00     0.161 C 
ATOM      2  C   LIG d   1      -1.339  58.244 118.365  0.00  0.00     0.016 C 
ATOM      3  C   LIG d   1      -1.954  58.597 117.142  0.00  0.00     0.038 C 
ATOM      4  C   LIG d   1      -1.208  58.839 115.979  0.00  0.00     0.028 C 
ATOM      5  C   LIG d   1       0.201  59.352 116.260  0.00  0.00    -0.047 C 
ATOM      6  C   LIG d   1       0.887  58.407 117.273  0.00  0.00     0.091 C 
ENDROOT
BRANCH   1   7
ATOM      7  O   LIG d   1       0.452  57.068 119.279  0.00  0.00    -0.368 OA
BRANCH   7   8
ATOM      8  C   LIG d   1      -0.323  55.872 119.016  0.00  0.00     0.119 C 
BRANCH   8   9
ATOM      9  C   LIG d   1      -0.618  55.204 120.373  0.00  0.00     0.028 C 
ATOM     10  C   LIG d   1      -2.125  55.110 120.665  0.00  0.00     0.006 C 
ENDBRANCH   8   9
BRANCH   8  11
ATOM     11  C   LIG d   1       0.492  54.843 118.227  0.00  0.00     0.028 C 
ATOM     12  C   LIG d   1       0.140  54.825 116.731  0.00  0.00     0.006 C 
ENDBRANCH   8  11
ENDBRANCH   7   8
ENDBRANCH   1   7
BRANCH   6  13
ATOM     13  N   LIG d   1       2.239  58.882 117.667  0.00  0.00    -0.311 N 
ATOM     14  C   LIG d   1       3.292  58.076 117.788  0.00  0.00     0.210 C 
ATOM     15  C   LIG d   1       4.588  58.768 118.223  0.00  0.00     0.109 C 
ATOM     16  O   LIG d   1       3.285  56.860 117.545  0.00  0.00    -0.276 OA
ATOM     17  H   LIG d   1       2.342  59.860 117.852  0.00  0.00     0.149 HD
ENDBRANCH   6  13
BRANCH   5  18
ATOM     18  N   LIG d   1       0.912  59.430 114.970  0.00  0.00     0.381 N 
ATOM     19  H   LIG d   1       1.138  60.382 114.764  0.00  0.00    -0.090 HD
ATOM     20  H   LIG d   1       0.308  59.086 114.244  0.00  0.00    -0.090 HD
ATOM     21  H   LIG d   1       1.744  58.883 115.005  0.00  0.00    -0.090 HD
ENDBRANCH   5  18
BRANCH   3  22
ATOM     22  C   LIG d   1      -3.331  58.750 117.085  0.00  0.00     0.382 C 
ATOM     23  O   LIG d   1      -3.826  59.864 116.788  0.00  0.00    -0.241 OA
ATOM     24  O   LIG d   1      -4.084  57.799 117.369  0.00  0.00    -0.241 OA
ENDBRANCH   3  22
TORSDOF 7
ENDMDL
MODEL 7
REMARK VINA RESULT:      -5.2     15.950     18.347
REMARK  7 active torsions:
REMARK  status: ('A' for Active; 'I' for Inactive)
REMARK    1  A    between atoms: C_2  and  C_3 
REMARK    2  A    between atoms: C_3  and  O_6 
REMARK    3  A    between atoms: C_3  and  C_4 
REMARK    4  A    between atoms: C_7  and  O_6 
REMARK    5  A    between atoms: C_9  and  C_10 
REMARK    6  A    between atoms: N_15  and  C_14 
REMARK    7  A    between atoms: N_20  and  C_19 
REMARK       I    between atoms: C_22  and  N_20 
ROOT
ATOM      1  C   LIG d   1      -3.016  75.255 116.023  0.00  0.00     0.161 C 
ATOM      2  C   LIG d   1      -2.469  74.508 117.080  0.00  0.00     0.016 C 
ATOM      3  C   LIG d   1      -1.094  74.516 117.409  0.00  0.00     0.038 C 
ATOM      4  C   LIG d   1      -0.190  75.394 116.793  0.00  0.00     0.028 C 
ATOM      5  C   LIG d   1      -0.602  75.798 115.382  0.00  0.00    -0.047 C 
ATOM      6  C   LIG d   1      -2.063  76.304 115.411  0.00  0.00     0.091 C 
ENDROOT
BRANCH   1   7
ATOM      7  O   LIG d   1      -4.242  75.881 116.449  0.00  0.00    -0.368 OA
BRANCH   7   8
ATOM      8  C   LIG d   1      -5.466  75.296 115.941  0.00  0.00     0.119 C 
BRANCH   8   9
ATOM      9  C   LIG d   1      -5.075  74.087 115.070  0.00  0.00     0.028 C 
ATOM     10  C   LIG d   1      -5.674  72.770 115.591  0.00  0.00     0.006 C 
ENDBRANCH   8   9
BRANCH   8  11
ATOM     11  C   LIG d   1      -6.193  76.259 114.996  0.00  0.00     0.028 C 
ATOM     12  C   LIG d   1      -6.002  75.896 113.515  0.00  0.00     0.006 C 
ENDBRANCH   8  11
ENDBRANCH   7   8
ENDBRANCH   1   7
BRANCH   6  13
ATOM     13  N   LIG d   1      -2.574  76.640 114.057  0.00  0.00    -0.311 N 
ATOM     14  C   LIG d   1      -2.515  77.864 113.534  0.00  0.00     0.210 C 
ATOM     15  C   LIG d   1      -3.117  77.997 112.132  0.00  0.00     0.109 C 
ATOM     16  O   LIG d   1      -1.993  78.844 114.086  0.00  0.00    -0.276 OA
ATOM     17  H   LIG d   1      -2.986  75.897 113.527  0.00  0.00     0.149 HD
ENDBRANCH   6  13
BRANCH   5  18
ATOM     18  N   LIG d   1       0.353  76.819 114.913  0.00  0.00     0.381 N 
ATOM     19  H   LIG d   1       1.247  76.398 114.755  0.00  0.00    -0.090 HD
ATOM     20  H   LIG d   1       0.456  77.520 115.625  0.00  0.00    -0.090 HD
ATOM     21  H   LIG d   1       0.021  77.236 114.071  0.00  0.00    -0.090 HD
ENDBRANCH   5  18
BRANCH   3  22
ATOM     22  C   LIG d   1      -0.604  73.609 118.336  0.00  0.00     0.382 C 
ATOM     23  O   LIG d   1       0.101  72.644 117.957  0.00  0.00    -0.241 OA
ATOM     24  O   LIG d   1      -0.896  73.720 119.542  0.00  0.00    -0.241 OA
ENDBRANCH   3  22
TORSDOF 7
ENDMDL
MODEL 8
REMARK VINA RESULT:      -5.0     15.383     17.732
REMARK  7 active torsions:
REMARK  status: ('A' for Active; 'I' for Inactive)
REMARK    1  A    between atoms: C_2  and  C_3 
REMARK    2  A    between atoms: C_3  and  O_6 
REMARK    3  A    between atoms: C_3  and  C_4 
REMARK    4  A    between atoms: C_7  and  O_6 
REMARK    5  A    between atoms: C_9  and  C_10 
REMARK    6  A    between atoms: N_15  and  C_14 
REMARK    7  A    between atoms: N_20  and  C_19 
REMARK       I    between atoms: C_22  and  N_20 
ROOT
ATOM      1  C   LIG d   1      -3.519  75.570 116.033  0.00  0.00     0.161 C 
ATOM      2  C   LIG d   1      -4.260  74.492 116.546  0.00  0.00     0.016 C 
ATOM      3  C   LIG d   1      -5.423  73.981 115.924  0.00  0.00     0.038 C 
ATOM      4  C   LIG d   1      -5.841  74.420 114.659  0.00  0.00     0.028 C 
ATOM      5  C   LIG d   1      -5.415  75.849 114.342  0.00  0.00    -0.047 C 
ATOM      6  C   LIG d   1      -3.896  75.989 114.597  0.00  0.00     0.091 C 
ENDROOT
BRANCH   1   7
ATOM      7  O   LIG d   1      -2.110  75.278 116.117  0.00  0.00    -0.368 OA
BRANCH   7   8
ATOM      8  C   LIG d   1      -1.330  76.142 116.979  0.00  0.00     0.119 C 
BRANCH   8   9
ATOM      9  C   LIG d   1      -0.323  76.897 116.090  0.00  0.00     0.028 C 
ATOM     10  C   LIG d   1       0.325  75.986 115.034  0.00  0.00     0.006 C 
ENDBRANCH   8   9
BRANCH   8  11
ATOM     11  C   LIG d   1      -0.478  75.329 117.958  0.00  0.00     0.028 C 
ATOM     12  C   LIG d   1      -0.866  73.843 117.995  0.00  0.00     0.006 C 
ENDBRANCH   8  11
ENDBRANCH   7   8
ENDBRANCH   1   7
BRANCH   6  13
ATOM     13  N   LIG d   1      -3.412  77.379 114.392  0.00  0.00    -0.311 N 
ATOM     14  C   LIG d   1      -2.896  77.813 113.244  0.00  0.00     0.210 C 
ATOM     15  C   LIG d   1      -2.440  79.276 113.252  0.00  0.00     0.109 C 
ATOM     16  O   LIG d   1      -2.802  77.136 112.209  0.00  0.00    -0.276 OA
ATOM     17  H   LIG d   1      -3.480  78.005 115.170  0.00  0.00     0.149 HD
ENDBRANCH   6  13
BRANCH   5  18
ATOM     18  N   LIG d   1      -5.795  76.129 112.945  0.00  0.00     0.381 N 
ATOM     19  H   LIG d   1      -6.750  76.424 112.906  0.00  0.00    -0.090 HD
ATOM     20  H   LIG d   1      -5.704  75.284 112.408  0.00  0.00    -0.090 HD
ATOM     21  H   LIG d   1      -5.205  76.836 112.566  0.00  0.00    -0.090 HD
ENDBRANCH   5  18
BRANCH   3  22
ATOM     22  C   LIG d   1      -6.204  73.048 116.589  0.00  0.00     0.382 C 
ATOM     23  O   LIG d   1      -6.984  73.418 117.499  0.00  0.00    -0.241 OA
ATOM     24  O   LIG d   1      -6.105  71.836 116.320  0.00  0.00    -0.241 OA
ENDBRANCH   3  22
TORSDOF 7
ENDMDL
MODEL 9
REMARK VINA RESULT:      -4.9     15.171     17.729
REMARK  7 active torsions:
REMARK  status: ('A' for Active; 'I' for Inactive)
REMARK    1  A    between atoms: C_2  and  C_3 
REMARK    2  A    between atoms: C_3  and  O_6 
REMARK    3  A    between atoms: C_3  and  C_4 
REMARK    4  A    between atoms: C_7  and  O_6 
REMARK    5  A    between atoms: C_9  and  C_10 
REMARK    6  A    between atoms: N_15  and  C_14 
REMARK    7  A    between atoms: N_20  and  C_19 
REMARK       I    between atoms: C_22  and  N_20 
ROOT
ATOM      1  C   LIG d   1      -3.393  75.190 115.776  0.00  0.00     0.161 C 
ATOM      2  C   LIG d   1      -2.853  76.474 115.596  0.00  0.00     0.016 C 
ATOM      3  C   LIG d   1      -3.639  77.649 115.545  0.00  0.00     0.038 C 
ATOM      4  C   LIG d   1      -5.013  77.634 115.825  0.00  0.00     0.028 C 
ATOM      5  C   LIG d   1      -5.680  76.298 115.513  0.00  0.00    -0.047 C 
ATOM      6  C   LIG d   1      -4.878  75.165 116.193  0.00  0.00     0.091 C 
ENDROOT
BRANCH   1   7
ATOM      7  O   LIG d   1      -2.594  74.452 116.722  0.00  0.00    -0.368 OA
BRANCH   7   8
ATOM      8  C   LIG d   1      -1.380  75.101 117.173  0.00  0.00     0.119 C 
BRANCH   8   9
ATOM      9  C   LIG d   1      -0.215  74.533 116.339  0.00  0.00     0.028 C 
ATOM     10  C   LIG d   1       0.626  75.638 115.678  0.00  0.00     0.006 C 
ENDBRANCH   8   9
BRANCH   8  11
ATOM     11  C   LIG d   1      -1.057  74.732 118.624  0.00  0.00     0.028 C 
ATOM     12  C   LIG d   1      -0.398  73.350 118.755  0.00  0.00     0.006 C 
ENDBRANCH   8  11
ENDBRANCH   7   8
ENDBRANCH   1   7
BRANCH   6  13
ATOM     13  N   LIG d   1      -5.414  73.818 115.869  0.00  0.00    -0.311 N 
ATOM     14  C   LIG d   1      -6.326  73.193 116.613  0.00  0.00     0.210 C 
ATOM     15  C   LIG d   1      -6.727  71.802 116.111  0.00  0.00     0.109 C 
ATOM     16  O   LIG d   1      -6.864  73.672 117.622  0.00  0.00    -0.276 OA
ATOM     17  H   LIG d   1      -5.055  73.369 115.049  0.00  0.00     0.149 HD
ENDBRANCH   6  13
BRANCH   5  18
ATOM     18  N   LIG d   1      -7.077  76.378 115.979  0.00  0.00     0.381 N 
ATOM     19  H   LIG d   1      -7.321  75.538 116.465  0.00  0.00    -0.090 HD
ATOM     20  H   LIG d   1      -7.682  76.467 115.181  0.00  0.00    -0.090 HD
ATOM     21  H   LIG d   1      -7.192  77.164 116.581  0.00  0.00    -0.090 HD
ENDBRANCH   5  18
BRANCH   3  22
ATOM     22  C   LIG d   1      -3.055  78.850 115.173  0.00  0.00     0.382 C 
ATOM     23  O   LIG d   1      -2.094  79.312 115.834  0.00  0.00    -0.241 OA
ATOM     24  O   LIG d   1      -3.507  79.501 114.212  0.00  0.00    -0.241 OA
ENDBRANCH   3  22
TORSDOF 7
ENDMDL
