MODEL 1
REMARK VINA RESULT:      -5.0      0.000      0.000
REMARK  7 active torsions:
REMARK  status: ('A' for Active; 'I' for Inactive)
REMARK    1  A    between atoms: C_2  and  C_3 
REMARK    2  A    between atoms: C_3  and  O_6 
REMARK    3  A    between atoms: C_3  and  C_4 
REMARK    4  A    between atoms: C_7  and  O_6 
REMARK    5  A    between atoms: C_9  and  C_10 
REMARK    6  A    between atoms: N_15  and  C_14 
REMARK    7  A    between atoms: N_20  and  C_19 
REMARK       I    between atoms: C_22  and  N_20 
ROOT
ATOM      1  C   LIG d   1      -4.994  92.864 116.977  0.00  0.00     0.161 C 
ATOM      2  C   LIG d   1      -6.141  92.206 116.503  0.00  0.00     0.016 C 
ATOM      3  C   LIG d   1      -6.217  90.804 116.330  0.00  0.00     0.038 C 
ATOM      4  C   LIG d   1      -5.196  89.947 116.765  0.00  0.00     0.028 C 
ATOM      5  C   LIG d   1      -3.820  90.603 116.782  0.00  0.00    -0.047 C 
ATOM      6  C   LIG d   1      -3.909  91.935 117.561  0.00  0.00     0.091 C 
ENDROOT
BRANCH   1   7
ATOM      7  O   LIG d   1      -5.370  93.866 117.943  0.00  0.00    -0.368 OA
BRANCH   7   8
ATOM      8  C   LIG d   1      -6.597  93.618 118.673  0.00  0.00     0.119 C 
BRANCH   8   9
ATOM      9  C   LIG d   1      -7.299  94.975 118.872  0.00  0.00     0.028 C 
ATOM     10  C   LIG d   1      -7.585  95.689 117.541  0.00  0.00     0.006 C 
ENDBRANCH   8   9
BRANCH   8  11
ATOM     11  C   LIG d   1      -6.309  93.099 120.085  0.00  0.00     0.028 C 
ATOM     12  C   LIG d   1      -6.564  91.590 120.228  0.00  0.00     0.006 C 
ENDBRANCH   8  11
ENDBRANCH   7   8
ENDBRANCH   1   7
BRANCH   6  13
ATOM     13  N   LIG d   1      -2.625  92.683 117.554  0.00  0.00    -0.311 N 
ATOM     14  C   LIG d   1      -2.080  93.215 118.647  0.00  0.00     0.210 C 
ATOM     15  C   LIG d   1      -0.763  93.962 118.415  0.00  0.00     0.109 C 
ATOM     16  O   LIG d   1      -2.546  93.111 119.791  0.00  0.00    -0.276 OA
ATOM     17  H   LIG d   1      -2.163  92.788 116.672  0.00  0.00     0.149 HD
ENDBRANCH   6  13
BRANCH   5  18
ATOM     18  N   LIG d   1      -2.876  89.643 117.384  0.00  0.00     0.381 N 
ATOM     19  H   LIG d   1      -2.219  90.131 117.960  0.00  0.00    -0.090 HD
ATOM     20  H   LIG d   1      -2.369  89.181 116.650  0.00  0.00    -0.090 HD
ATOM     21  H   LIG d   1      -3.372  88.973 117.929  0.00  0.00    -0.090 HD
ENDBRANCH   5  18
BRANCH   3  22
ATOM     22  C   LIG d   1      -7.310  90.251 115.678  0.00  0.00     0.382 C 
ATOM     23  O   LIG d   1      -7.582  89.036 115.832  0.00  0.00    -0.241 OA
ATOM     24  O   LIG d   1      -8.000  90.941 114.904  0.00  0.00    -0.241 OA
ENDBRANCH   3  22
TORSDOF 7
ENDMDL
MODEL 2
REMARK VINA RESULT:      -5.0     34.087     35.587
REMARK  7 active torsions:
REMARK  status: ('A' for Active; 'I' for Inactive)
REMARK    1  A    between atoms: C_2  and  C_3 
REMARK    2  A    between atoms: C_3  and  O_6 
REMARK    3  A    between atoms: C_3  and  C_4 
REMARK    4  A    between atoms: C_7  and  O_6 
REMARK    5  A    between atoms: C_9  and  C_10 
REMARK    6  A    between atoms: N_15  and  C_14 
REMARK    7  A    between atoms: N_20  and  C_19 
REMARK       I    between atoms: C_22  and  N_20 
ROOT
ATOM      1  C   LIG d   1       1.446  58.180 118.030  0.00  0.00     0.161 C 
ATOM      2  C   LIG d   1       0.217  58.710 117.601  0.00  0.00     0.016 C 
ATOM      3  C   LIG d   1      -0.773  57.945 116.943  0.00  0.00     0.038 C 
ATOM      4  C   LIG d   1      -0.663  56.554 116.802  0.00  0.00     0.028 C 
ATOM      5  C   LIG d   1       0.780  56.060 116.769  0.00  0.00    -0.047 C 
ATOM      6  C   LIG d   1       1.537  56.641 117.985  0.00  0.00     0.091 C 
ENDROOT
BRANCH   1   7
ATOM      7  O   LIG d   1       1.750  58.662 119.354  0.00  0.00    -0.368 OA
BRANCH   7   8
ATOM      8  C   LIG d   1       1.094  57.974 120.448  0.00  0.00     0.119 C 
BRANCH   8   9
ATOM      9  C   LIG d   1       0.225  59.008 121.191  0.00  0.00     0.028 C 
ATOM     10  C   LIG d   1      -0.747  58.352 122.186  0.00  0.00     0.006 C 
ENDBRANCH   8   9
BRANCH   8  11
ATOM     11  C   LIG d   1       2.109  57.480 121.484  0.00  0.00     0.028 C 
ATOM     12  C   LIG d   1       3.524  58.027 121.239  0.00  0.00     0.006 C 
ENDBRANCH   8  11
ENDBRANCH   7   8
ENDBRANCH   1   7
BRANCH   6  13
ATOM     13  N   LIG d   1       2.978  56.276 117.983  0.00  0.00    -0.311 N 
ATOM     14  C   LIG d   1       3.481  55.273 118.701  0.00  0.00     0.210 C 
ATOM     15  C   LIG d   1       4.995  55.079 118.569  0.00  0.00     0.109 C 
ATOM     16  O   LIG d   1       2.812  54.505 119.409  0.00  0.00    -0.276 OA
ATOM     17  H   LIG d   1       3.587  56.827 117.411  0.00  0.00     0.149 HD
ENDBRANCH   6  13
BRANCH   5  18
ATOM     18  N   LIG d   1       0.747  54.586 116.759  0.00  0.00     0.381 N 
ATOM     19  H   LIG d   1       0.454  54.260 115.859  0.00  0.00    -0.090 HD
ATOM     20  H   LIG d   1       0.079  54.271 117.440  0.00  0.00    -0.090 HD
ATOM     21  H   LIG d   1       1.649  54.223 116.974  0.00  0.00    -0.090 HD
ENDBRANCH   5  18
BRANCH   3  22
ATOM     22  C   LIG d   1      -1.870  58.579 116.381  0.00  0.00     0.382 C 
ATOM     23  O   LIG d   1      -2.893  58.794 117.075  0.00  0.00    -0.241 OA
ATOM     24  O   LIG d   1      -1.868  58.898 115.177  0.00  0.00    -0.241 OA
ENDBRANCH   3  22
TORSDOF 7
ENDMDL
MODEL 3
REMARK VINA RESULT:      -5.0     32.996     34.412
REMARK  7 active torsions:
REMARK  status: ('A' for Active; 'I' for Inactive)
REMARK    1  A    between atoms: C_2  and  C_3 
REMARK    2  A    between atoms: C_3  and  O_6 
REMARK    3  A    between atoms: C_3  and  C_4 
REMARK    4  A    between atoms: C_7  and  O_6 
REMARK    5  A    between atoms: C_9  and  C_10 
REMARK    6  A    between atoms: N_15  and  C_14 
REMARK    7  A    between atoms: N_20  and  C_19 
REMARK       I    between atoms: C_22  and  N_20 
ROOT
ATOM      1  C   LIG d   1       0.270  58.792 119.525  0.00  0.00     0.161 C 
ATOM      2  C   LIG d   1      -0.703  58.563 118.538  0.00  0.00     0.016 C 
ATOM      3  C   LIG d   1      -0.490  57.734 117.413  0.00  0.00     0.038 C 
ATOM      4  C   LIG d   1       0.667  56.953 117.277  0.00  0.00     0.028 C 
ATOM      5  C   LIG d   1       1.882  57.539 117.989  0.00  0.00    -0.047 C 
ATOM      6  C   LIG d   1       1.498  57.861 119.451  0.00  0.00     0.091 C 
ENDROOT
BRANCH   1   7
ATOM      7  O   LIG d   1      -0.334  58.722 120.832  0.00  0.00    -0.368 OA
BRANCH   7   8
ATOM      8  C   LIG d   1      -1.221  59.812 121.184  0.00  0.00     0.119 C 
BRANCH   8   9
ATOM      9  C   LIG d   1      -0.710  60.418 122.505  0.00  0.00     0.028 C 
ATOM     10  C   LIG d   1       0.787  60.148 122.734  0.00  0.00     0.006 C 
ENDBRANCH   8   9
BRANCH   8  11
ATOM     11  C   LIG d   1      -2.633  59.305 121.491  0.00  0.00     0.028 C 
ATOM     12  C   LIG d   1      -3.681  59.818 120.490  0.00  0.00     0.006 C 
ENDBRANCH   8  11
ENDBRANCH   7   8
ENDBRANCH   1   7
BRANCH   6  13
ATOM     13  N   LIG d   1       2.605  58.516 120.196  0.00  0.00    -0.311 N 
ATOM     14  C   LIG d   1       3.447  57.855 120.989  0.00  0.00     0.210 C 
ATOM     15  C   LIG d   1       4.503  58.725 121.678  0.00  0.00     0.109 C 
ATOM     16  O   LIG d   1       3.440  56.627 121.161  0.00  0.00    -0.276 OA
ATOM     17  H   LIG d   1       2.703  59.507 120.090  0.00  0.00     0.149 HD
ENDBRANCH   6  13
BRANCH   5  18
ATOM     18  N   LIG d   1       2.978  56.558 117.882  0.00  0.00     0.381 N 
ATOM     19  H   LIG d   1       3.584  56.808 117.126  0.00  0.00    -0.090 HD
ATOM     20  H   LIG d   1       2.586  55.653 117.686  0.00  0.00    -0.090 HD
ATOM     21  H   LIG d   1       3.493  56.527 118.734  0.00  0.00    -0.090 HD
ENDBRANCH   5  18
BRANCH   3  22
ATOM     22  C   LIG d   1      -1.424  57.712 116.389  0.00  0.00     0.382 C 
ATOM     23  O   LIG d   1      -2.057  56.658 116.141  0.00  0.00    -0.241 OA
ATOM     24  O   LIG d   1      -1.610  58.720 115.681  0.00  0.00    -0.241 OA
ENDBRANCH   3  22
TORSDOF 7
ENDMDL
MODEL 4
REMARK VINA RESULT:      -4.8      2.367      5.655
REMARK  7 active torsions:
REMARK  status: ('A' for Active; 'I' for Inactive)
REMARK    1  A    between atoms: C_2  and  C_3 
REMARK    2  A    between atoms: C_3  and  O_6 
REMARK    3  A    between atoms: C_3  and  C_4 
REMARK    4  A    between atoms: C_7  and  O_6 
REMARK    5  A    between atoms: C_9  and  C_10 
REMARK    6  A    between atoms: N_15  and  C_14 
REMARK    7  A    between atoms: N_20  and  C_19 
REMARK       I    between atoms: C_22  and  N_20 
ROOT
ATOM      1  C   LIG d   1      -4.441  92.128 117.770  0.00  0.00     0.161 C 
ATOM      2  C   LIG d   1      -4.563  93.291 118.549  0.00  0.00     0.016 C 
ATOM      3  C   LIG d   1      -5.594  94.242 118.372  0.00  0.00     0.038 C 
ATOM      4  C   LIG d   1      -6.667  94.017 117.497  0.00  0.00     0.028 C 
ATOM      5  C   LIG d   1      -6.317  93.098 116.331  0.00  0.00    -0.047 C 
ATOM      6  C   LIG d   1      -5.665  91.811 116.886  0.00  0.00     0.091 C 
ENDROOT
BRANCH   1   7
ATOM      7  O   LIG d   1      -4.129  91.004 118.616  0.00  0.00    -0.368 OA
BRANCH   7   8
ATOM      8  C   LIG d   1      -2.889  90.313 118.326  0.00  0.00     0.119 C 
BRANCH   8   9
ATOM      9  C   LIG d   1      -3.113  88.817 118.618  0.00  0.00     0.028 C 
ATOM     10  C   LIG d   1      -2.611  87.915 117.478  0.00  0.00     0.006 C 
ENDBRANCH   8   9
BRANCH   8  11
ATOM     11  C   LIG d   1      -1.772  90.750 119.279  0.00  0.00     0.028 C 
ATOM     12  C   LIG d   1      -0.794  91.745 118.635  0.00  0.00     0.006 C 
ENDBRANCH   8  11
ENDBRANCH   7   8
ENDBRANCH   1   7
BRANCH   6  13
ATOM     13  N   LIG d   1      -5.215  90.894 115.807  0.00  0.00    -0.311 N 
ATOM     14  C   LIG d   1      -5.572  89.612 115.737  0.00  0.00     0.210 C 
ATOM     15  C   LIG d   1      -4.980  88.839 114.555  0.00  0.00     0.109 C 
ATOM     16  O   LIG d   1      -6.349  89.051 116.525  0.00  0.00    -0.276 OA
ATOM     17  H   LIG d   1      -4.607  91.274 115.108  0.00  0.00     0.149 HD
ENDBRANCH   6  13
BRANCH   5  18
ATOM     18  N   LIG d   1      -7.559  92.840 115.579  0.00  0.00     0.381 N 
ATOM     19  H   LIG d   1      -7.863  91.901 115.740  0.00  0.00    -0.090 HD
ATOM     20  H   LIG d   1      -7.372  92.947 114.597  0.00  0.00    -0.090 HD
ATOM     21  H   LIG d   1      -8.268  93.480 115.861  0.00  0.00    -0.090 HD
ENDBRANCH   5  18
BRANCH   3  22
ATOM     22  C   LIG d   1      -5.536  95.452 119.046  0.00  0.00     0.382 C 
ATOM     23  O   LIG d   1      -4.674  95.631 119.940  0.00  0.00    -0.241 OA
ATOM     24  O   LIG d   1      -6.362  96.352 118.802  0.00  0.00    -0.241 OA
ENDBRANCH   3  22
TORSDOF 7
ENDMDL
MODEL 5
REMARK VINA RESULT:      -4.8      1.484      2.339
REMARK  7 active torsions:
REMARK  status: ('A' for Active; 'I' for Inactive)
REMARK    1  A    between atoms: C_2  and  C_3 
REMARK    2  A    between atoms: C_3  and  O_6 
REMARK    3  A    between atoms: C_3  and  C_4 
REMARK    4  A    between atoms: C_7  and  O_6 
REMARK    5  A    between atoms: C_9  and  C_10 
REMARK    6  A    between atoms: N_15  and  C_14 
REMARK    7  A    between atoms: N_20  and  C_19 
REMARK       I    between atoms: C_22  and  N_20 
ROOT
ATOM      1  C   LIG d   1      -6.149  93.398 117.009  0.00  0.00     0.161 C 
ATOM      2  C   LIG d   1      -6.822  92.414 116.265  0.00  0.00     0.016 C 
ATOM      3  C   LIG d   1      -6.254  91.160 115.941  0.00  0.00     0.038 C 
ATOM      4  C   LIG d   1      -5.024  90.744 116.471  0.00  0.00     0.028 C 
ATOM      5  C   LIG d   1      -4.089  91.900 116.812  0.00  0.00    -0.047 C 
ATOM      6  C   LIG d   1      -4.850  92.919 117.690  0.00  0.00     0.091 C 
ENDROOT
BRANCH   1   7
ATOM      7  O   LIG d   1      -7.044  93.970 117.983  0.00  0.00    -0.368 OA
BRANCH   7   8
ATOM      8  C   LIG d   1      -7.234  95.405 117.909  0.00  0.00     0.119 C 
BRANCH   8   9
ATOM      9  C   LIG d   1      -7.014  95.975 119.323  0.00  0.00     0.028 C 
ATOM     10  C   LIG d   1      -6.777  94.873 120.370  0.00  0.00     0.006 C 
ENDBRANCH   8   9
BRANCH   8  11
ATOM     11  C   LIG d   1      -8.681  95.757 117.550  0.00  0.00     0.028 C 
ATOM     12  C   LIG d   1      -9.272  96.846 118.459  0.00  0.00     0.006 C 
ENDBRANCH   8  11
ENDBRANCH   7   8
ENDBRANCH   1   7
BRANCH   6  13
ATOM     13  N   LIG d   1      -4.034  94.122 117.999  0.00  0.00    -0.311 N 
ATOM     14  C   LIG d   1      -3.327  94.260 119.119  0.00  0.00     0.210 C 
ATOM     15  C   LIG d   1      -2.573  95.587 119.248  0.00  0.00     0.109 C 
ATOM     16  O   LIG d   1      -3.227  93.397 120.004  0.00  0.00    -0.276 OA
ATOM     17  H   LIG d   1      -4.033  94.859 117.321  0.00  0.00     0.149 HD
ENDBRANCH   6  13
BRANCH   5  18
ATOM     18  N   LIG d   1      -2.904  91.331 117.481  0.00  0.00     0.381 N 
ATOM     19  H   LIG d   1      -2.381  92.062 117.922  0.00  0.00    -0.090 HD
ATOM     20  H   LIG d   1      -2.318  90.896 116.791  0.00  0.00    -0.090 HD
ATOM     21  H   LIG d   1      -3.185  90.658 118.160  0.00  0.00    -0.090 HD
ENDBRANCH   5  18
BRANCH   3  22
ATOM     22  C   LIG d   1      -6.902  90.324 115.044  0.00  0.00     0.382 C 
ATOM     23  O   LIG d   1      -8.006  90.664 114.555  0.00  0.00    -0.241 OA
ATOM     24  O   LIG d   1      -6.417  89.214 114.753  0.00  0.00    -0.241 OA
ENDBRANCH   3  22
TORSDOF 7
ENDMDL
MODEL 6
REMARK VINA RESULT:      -4.7      2.293      3.919
REMARK  7 active torsions:
REMARK  status: ('A' for Active; 'I' for Inactive)
REMARK    1  A    between atoms: C_2  and  C_3 
REMARK    2  A    between atoms: C_3  and  O_6 
REMARK    3  A    between atoms: C_3  and  C_4 
REMARK    4  A    between atoms: C_7  and  O_6 
REMARK    5  A    between atoms: C_9  and  C_10 
REMARK    6  A    between atoms: N_15  and  C_14 
REMARK    7  A    between atoms: N_20  and  C_19 
REMARK       I    between atoms: C_22  and  N_20 
ROOT
ATOM      1  C   LIG d   1      -4.180  91.389 117.717  0.00  0.00     0.161 C 
ATOM      2  C   LIG d   1      -4.437  90.406 116.747  0.00  0.00     0.016 C 
ATOM      3  C   LIG d   1      -5.412  90.550 115.733  0.00  0.00     0.038 C 
ATOM      4  C   LIG d   1      -6.097  91.757 115.528  0.00  0.00     0.028 C 
ATOM      5  C   LIG d   1      -6.233  92.598 116.793  0.00  0.00    -0.047 C 
ATOM      6  C   LIG d   1      -4.839  92.757 117.442  0.00  0.00     0.091 C 
ENDROOT
BRANCH   1   7
ATOM      7  O   LIG d   1      -2.758  91.544 117.891  0.00  0.00    -0.368 OA
BRANCH   7   8
ATOM      8  C   LIG d   1      -2.196  90.965 119.095  0.00  0.00     0.119 C 
BRANCH   8   9
ATOM      9  C   LIG d   1      -3.372  90.544 119.998  0.00  0.00     0.028 C 
ATOM     10  C   LIG d   1      -3.404  91.325 121.322  0.00  0.00     0.006 C 
ENDBRANCH   8   9
BRANCH   8  11
ATOM     11  C   LIG d   1      -1.417  92.007 119.903  0.00  0.00     0.028 C 
ATOM     12  C   LIG d   1      -0.353  92.735 119.067  0.00  0.00     0.006 C 
ENDBRANCH   8  11
ENDBRANCH   7   8
ENDBRANCH   1   7
BRANCH   6  13
ATOM     13  N   LIG d   1      -4.895  93.496 118.731  0.00  0.00    -0.311 N 
ATOM     14  C   LIG d   1      -4.024  94.444 119.070  0.00  0.00     0.210 C 
ATOM     15  C   LIG d   1      -4.250  95.066 120.452  0.00  0.00     0.109 C 
ATOM     16  O   LIG d   1      -3.104  94.852 118.345  0.00  0.00    -0.276 OA
ATOM     17  H   LIG d   1      -5.629  93.250 119.366  0.00  0.00     0.149 HD
ENDBRANCH   6  13
BRANCH   5  18
ATOM     18  N   LIG d   1      -6.842  93.885 116.409  0.00  0.00     0.381 N 
ATOM     19  H   LIG d   1      -7.187  94.354 117.223  0.00  0.00    -0.090 HD
ATOM     20  H   LIG d   1      -7.618  93.708 115.795  0.00  0.00    -0.090 HD
ATOM     21  H   LIG d   1      -6.169  94.457 115.948  0.00  0.00    -0.090 HD
ENDBRANCH   5  18
BRANCH   3  22
ATOM     22  C   LIG d   1      -5.739  89.464 114.936  0.00  0.00     0.382 C 
ATOM     23  O   LIG d   1      -4.843  88.672 114.555  0.00  0.00    -0.241 OA
ATOM     24  O   LIG d   1      -6.913  89.290 114.555  0.00  0.00    -0.241 OA
ENDBRANCH   3  22
TORSDOF 7
ENDMDL
MODEL 7
REMARK VINA RESULT:      -4.7      1.819      2.107
REMARK  7 active torsions:
REMARK  status: ('A' for Active; 'I' for Inactive)
REMARK    1  A    between atoms: C_2  and  C_3 
REMARK    2  A    between atoms: C_3  and  O_6 
REMARK    3  A    between atoms: C_3  and  C_4 
REMARK    4  A    between atoms: C_7  and  O_6 
REMARK    5  A    between atoms: C_9  and  C_10 
REMARK    6  A    between atoms: N_15  and  C_14 
REMARK    7  A    between atoms: N_20  and  C_19 
REMARK       I    between atoms: C_22  and  N_20 
ROOT
ATOM      1  C   LIG d   1      -4.212  92.368 116.970  0.00  0.00     0.161 C 
ATOM      2  C   LIG d   1      -5.534  92.424 116.498  0.00  0.00     0.016 C 
ATOM      3  C   LIG d   1      -6.236  91.296 116.016  0.00  0.00     0.038 C 
ATOM      4  C   LIG d   1      -5.713  89.998 116.116  0.00  0.00     0.028 C 
ATOM      5  C   LIG d   1      -4.188  89.959 116.119  0.00  0.00    -0.047 C 
ATOM      6  C   LIG d   1      -3.664  90.943 117.190  0.00  0.00     0.091 C 
ENDROOT
BRANCH   1   7
ATOM      7  O   LIG d   1      -4.092  93.143 118.180  0.00  0.00    -0.368 OA
BRANCH   7   8
ATOM      8  C   LIG d   1      -5.332  93.459 118.860  0.00  0.00     0.119 C 
BRANCH   8   9
ATOM      9  C   LIG d   1      -5.233  94.918 119.346  0.00  0.00     0.028 C 
ATOM     10  C   LIG d   1      -3.837  95.521 119.116  0.00  0.00     0.006 C 
ENDBRANCH   8   9
BRANCH   8  11
ATOM     11  C   LIG d   1      -5.501  92.619 120.129  0.00  0.00     0.028 C 
ATOM     12  C   LIG d   1      -6.504  91.467 119.951  0.00  0.00     0.006 C 
ENDBRANCH   8  11
ENDBRANCH   7   8
ENDBRANCH   1   7
BRANCH   6  13
ATOM     13  N   LIG d   1      -2.180  91.028 117.202  0.00  0.00    -0.311 N 
ATOM     14  C   LIG d   1      -1.409  90.285 117.994  0.00  0.00     0.210 C 
ATOM     15  C   LIG d   1       0.095  90.545 117.862  0.00  0.00     0.109 C 
ATOM     16  O   LIG d   1      -1.826  89.411 118.769  0.00  0.00    -0.276 OA
ATOM     17  H   LIG d   1      -1.756  91.689 116.581  0.00  0.00     0.149 HD
ENDBRANCH   6  13
BRANCH   5  18
ATOM     18  N   LIG d   1      -3.779  88.563 116.366  0.00  0.00     0.381 N 
ATOM     19  H   LIG d   1      -3.863  88.353 117.341  0.00  0.00    -0.090 HD
ATOM     20  H   LIG d   1      -2.816  88.455 116.102  0.00  0.00    -0.090 HD
ATOM     21  H   LIG d   1      -4.348  87.942 115.835  0.00  0.00    -0.090 HD
ENDBRANCH   5  18
BRANCH   3  22
ATOM     22  C   LIG d   1      -7.462  91.465 115.391  0.00  0.00     0.382 C 
ATOM     23  O   LIG d   1      -7.995  92.600 115.352  0.00  0.00    -0.241 OA
ATOM     24  O   LIG d   1      -8.063  90.489 114.903  0.00  0.00    -0.241 OA
ENDBRANCH   3  22
TORSDOF 7
ENDMDL
MODEL 8
REMARK VINA RESULT:      -4.7     11.956     14.246
REMARK  7 active torsions:
REMARK  status: ('A' for Active; 'I' for Inactive)
REMARK    1  A    between atoms: C_2  and  C_3 
REMARK    2  A    between atoms: C_3  and  O_6 
REMARK    3  A    between atoms: C_3  and  C_4 
REMARK    4  A    between atoms: C_7  and  O_6 
REMARK    5  A    between atoms: C_9  and  C_10 
REMARK    6  A    between atoms: N_15  and  C_14 
REMARK    7  A    between atoms: N_20  and  C_19 
REMARK       I    between atoms: C_22  and  N_20 
ROOT
ATOM      1  C   LIG d   1      -8.789  78.564 118.629  0.00  0.00     0.161 C 
ATOM      2  C   LIG d   1      -8.992  79.626 117.732  0.00  0.00     0.016 C 
ATOM      3  C   LIG d   1      -9.677  80.814 118.075  0.00  0.00     0.038 C 
ATOM      4  C   LIG d   1     -10.077  81.086 119.392  0.00  0.00     0.028 C 
ATOM      5  C   LIG d   1     -10.340  79.830 120.216  0.00  0.00    -0.047 C 
ATOM      6  C   LIG d   1      -9.120  78.889 120.100  0.00  0.00     0.091 C 
ENDROOT
BRANCH   1   7
ATOM      7  O   LIG d   1      -7.436  78.080 118.514  0.00  0.00    -0.368 OA
BRANCH   7   8
ATOM      8  C   LIG d   1      -6.460  79.029 118.018  0.00  0.00     0.119 C 
BRANCH   8   9
ATOM      9  C   LIG d   1      -5.568  78.287 117.004  0.00  0.00     0.028 C 
ATOM     10  C   LIG d   1      -6.302  77.123 116.317  0.00  0.00     0.006 C 
ENDBRANCH   8   9
BRANCH   8  11
ATOM     11  C   LIG d   1      -5.513  79.487 119.131  0.00  0.00     0.028 C 
ATOM     12  C   LIG d   1      -5.967  80.796 119.798  0.00  0.00     0.006 C 
ENDBRANCH   8  11
ENDBRANCH   7   8
ENDBRANCH   1   7
BRANCH   6  13
ATOM     13  N   LIG d   1      -9.329  77.599 120.809  0.00  0.00    -0.311 N 
ATOM     14  C   LIG d   1      -8.409  77.032 121.588  0.00  0.00     0.210 C 
ATOM     15  C   LIG d   1      -8.822  75.694 122.207  0.00  0.00     0.109 C 
ATOM     16  O   LIG d   1      -7.303  77.527 121.850  0.00  0.00    -0.276 OA
ATOM     17  H   LIG d   1     -10.212  77.144 120.677  0.00  0.00     0.149 HD
ENDBRANCH   6  13
BRANCH   5  18
ATOM     18  N   LIG d   1     -10.613  80.256 121.602  0.00  0.00     0.381 N 
ATOM     19  H   LIG d   1      -9.816  80.734 121.972  0.00  0.00    -0.090 HD
ATOM     20  H   LIG d   1     -10.782  79.441 122.165  0.00  0.00    -0.090 HD
ATOM     21  H   LIG d   1     -11.409  80.854 121.624  0.00  0.00    -0.090 HD
ENDBRANCH   5  18
BRANCH   3  22
ATOM     22  C   LIG d   1     -10.005  81.729 117.086  0.00  0.00     0.382 C 
ATOM     23  O   LIG d   1     -11.069  82.388 117.168  0.00  0.00    -0.241 OA
ATOM     24  O   LIG d   1      -9.271  81.871 116.089  0.00  0.00    -0.241 OA
ENDBRANCH   3  22
TORSDOF 7
ENDMDL
MODEL 9
REMARK VINA RESULT:      -4.7      2.296      4.324
REMARK  7 active torsions:
REMARK  status: ('A' for Active; 'I' for Inactive)
REMARK    1  A    between atoms: C_2  and  C_3 
REMARK    2  A    between atoms: C_3  and  O_6 
REMARK    3  A    between atoms: C_3  and  C_4 
REMARK    4  A    between atoms: C_7  and  O_6 
REMARK    5  A    between atoms: C_9  and  C_10 
REMARK    6  A    between atoms: N_15  and  C_14 
REMARK    7  A    between atoms: N_20  and  C_19 
REMARK       I    between atoms: C_22  and  N_20 
ROOT
ATOM      1  C   LIG d   1      -4.399  90.876 117.772  0.00  0.00     0.161 C 
ATOM      2  C   LIG d   1      -5.352  90.108 117.083  0.00  0.00     0.016 C 
ATOM      3  C   LIG d   1      -6.497  90.662 116.465  0.00  0.00     0.038 C 
ATOM      4  C   LIG d   1      -6.688  92.048 116.363  0.00  0.00     0.028 C 
ATOM      5  C   LIG d   1      -6.012  92.836 117.480  0.00  0.00    -0.047 C 
ATOM      6  C   LIG d   1      -4.532  92.401 117.577  0.00  0.00     0.091 C 
ENDROOT
BRANCH   1   7
ATOM      7  O   LIG d   1      -3.071  90.439 117.418  0.00  0.00    -0.368 OA
BRANCH   7   8
ATOM      8  C   LIG d   1      -2.375  89.646 118.411  0.00  0.00     0.119 C 
BRANCH   8   9
ATOM      9  C   LIG d   1      -0.953  90.225 118.551  0.00  0.00     0.028 C 
ATOM     10  C   LIG d   1      -0.020  89.767 117.417  0.00  0.00     0.006 C 
ENDBRANCH   8   9
BRANCH   8  11
ATOM     11  C   LIG d   1      -2.181  88.204 117.935  0.00  0.00     0.028 C 
ATOM     12  C   LIG d   1      -2.368  87.175 119.062  0.00  0.00     0.006 C 
ENDBRANCH   8  11
ENDBRANCH   7   8
ENDBRANCH   1   7
BRANCH   6  13
ATOM     13  N   LIG d   1      -3.819  93.062 118.700  0.00  0.00    -0.311 N 
ATOM     14  C   LIG d   1      -2.602  93.591 118.586  0.00  0.00     0.210 C 
ATOM     15  C   LIG d   1      -2.041  94.207 119.872  0.00  0.00     0.109 C 
ATOM     16  O   LIG d   1      -1.947  93.638 117.534  0.00  0.00    -0.276 OA
ATOM     17  H   LIG d   1      -4.291  93.097 119.583  0.00  0.00     0.149 HD
ENDBRANCH   6  13
BRANCH   5  18
ATOM     18  N   LIG d   1      -6.174  94.270 117.175  0.00  0.00     0.381 N 
ATOM     19  H   LIG d   1      -6.897  94.658 117.748  0.00  0.00    -0.090 HD
ATOM     20  H   LIG d   1      -6.447  94.369 116.213  0.00  0.00    -0.090 HD
ATOM     21  H   LIG d   1      -5.318  94.752 117.337  0.00  0.00    -0.090 HD
ENDBRANCH   5  18
BRANCH   3  22
ATOM     22  C   LIG d   1      -7.486  89.823 115.974  0.00  0.00     0.382 C 
ATOM     23  O   LIG d   1      -8.213  90.200 115.024  0.00  0.00    -0.241 OA
ATOM     24  O   LIG d   1      -7.689  88.711 116.498  0.00  0.00    -0.241 OA
ENDBRANCH   3  22
TORSDOF 7
ENDMDL
