MODEL 1
REMARK VINA RESULT:      -6.6      0.000      0.000
REMARK  7 active torsions:
REMARK  status: ('A' for Active; 'I' for Inactive)
REMARK    1  A    between atoms: C_2  and  C_3 
REMARK    2  A    between atoms: C_3  and  O_6 
REMARK    3  A    between atoms: C_3  and  C_4 
REMARK    4  A    between atoms: C_7  and  O_6 
REMARK    5  A    between atoms: C_9  and  C_10 
REMARK    6  A    between atoms: N_15  and  C_14 
REMARK    7  A    between atoms: N_20  and  C_19 
REMARK       I    between atoms: C_22  and  N_20 
ROOT
ATOM      1  C   LIG d   1       1.499  83.941 109.203  0.00  0.00     0.161 C 
ATOM      2  C   LIG d   1       1.184  85.173 109.801  0.00  0.00     0.016 C 
ATOM      3  C   LIG d   1       0.325  85.299 110.917  0.00  0.00     0.038 C 
ATOM      4  C   LIG d   1      -0.160  84.179 111.609  0.00  0.00     0.028 C 
ATOM      5  C   LIG d   1      -0.277  82.933 110.739  0.00  0.00    -0.047 C 
ATOM      6  C   LIG d   1       1.068  82.700 110.012  0.00  0.00     0.091 C 
ENDROOT
BRANCH   1   7
ATOM      7  O   LIG d   1       2.910  83.885 108.914  0.00  0.00    -0.368 OA
BRANCH   7   8
ATOM      8  C   LIG d   1       3.763  83.418 109.988  0.00  0.00     0.119 C 
BRANCH   8   9
ATOM      9  C   LIG d   1       4.438  84.653 110.614  0.00  0.00     0.028 C 
ATOM     10  C   LIG d   1       3.992  84.894 112.066  0.00  0.00     0.006 C 
ENDBRANCH   8   9
BRANCH   8  11
ATOM     11  C   LIG d   1       4.910  82.555 109.454  0.00  0.00     0.028 C 
ATOM     12  C   LIG d   1       4.616  81.967 108.065  0.00  0.00     0.006 C 
ENDBRANCH   8  11
ENDBRANCH   7   8
ENDBRANCH   1   7
BRANCH   6  13
ATOM     13  N   LIG d   1       1.014  81.548 109.075  0.00  0.00    -0.311 N 
ATOM     14  C   LIG d   1       1.698  80.420 109.259  0.00  0.00     0.210 C 
ATOM     15  C   LIG d   1       1.515  79.367 108.162  0.00  0.00     0.109 C 
ATOM     16  O   LIG d   1       2.413  80.180 110.243  0.00  0.00    -0.276 OA
ATOM     17  H   LIG d   1       0.433  81.646 108.265  0.00  0.00     0.149 HD
ENDBRANCH   6  13
BRANCH   5  18
ATOM     18  N   LIG d   1      -0.661  81.811 111.616  0.00  0.00     0.381 N 
ATOM     19  H   LIG d   1      -1.374  81.265 111.175  0.00  0.00    -0.090 HD
ATOM     20  H   LIG d   1      -1.033  82.181 112.473  0.00  0.00    -0.090 HD
ATOM     21  H   LIG d   1       0.132  81.241 111.809  0.00  0.00    -0.090 HD
ENDBRANCH   5  18
BRANCH   3  22
ATOM     22  C   LIG d   1      -0.088  86.557 111.327  0.00  0.00     0.382 C 
ATOM     23  O   LIG d   1      -1.299  86.875 111.249  0.00  0.00    -0.241 OA
ATOM     24  O   LIG d   1       0.741  87.394 111.732  0.00  0.00    -0.241 OA
ENDBRANCH   3  22
TORSDOF 7
ENDMDL
MODEL 2
REMARK VINA RESULT:      -6.3      1.663      2.701
REMARK  7 active torsions:
REMARK  status: ('A' for Active; 'I' for Inactive)
REMARK    1  A    between atoms: C_2  and  C_3 
REMARK    2  A    between atoms: C_3  and  O_6 
REMARK    3  A    between atoms: C_3  and  C_4 
REMARK    4  A    between atoms: C_7  and  O_6 
REMARK    5  A    between atoms: C_9  and  C_10 
REMARK    6  A    between atoms: N_15  and  C_14 
REMARK    7  A    between atoms: N_20  and  C_19 
REMARK       I    between atoms: C_22  and  N_20 
ROOT
ATOM      1  C   LIG d   1       2.341  84.961 110.136  0.00  0.00     0.161 C 
ATOM      2  C   LIG d   1       1.372  85.747 110.781  0.00  0.00     0.016 C 
ATOM      3  C   LIG d   1       0.120  85.246 111.206  0.00  0.00     0.038 C 
ATOM      4  C   LIG d   1      -0.189  83.879 111.149  0.00  0.00     0.028 C 
ATOM      5  C   LIG d   1       0.557  83.134 110.046  0.00  0.00    -0.047 C 
ATOM      6  C   LIG d   1       2.067  83.443 110.166  0.00  0.00     0.091 C 
ENDROOT
BRANCH   1   7
ATOM      7  O   LIG d   1       3.644  85.245 110.684  0.00  0.00    -0.368 OA
BRANCH   7   8
ATOM      8  C   LIG d   1       3.663  85.883 111.985  0.00  0.00     0.119 C 
BRANCH   8   9
ATOM      9  C   LIG d   1       4.846  86.871 111.998  0.00  0.00     0.028 C 
ATOM     10  C   LIG d   1       4.778  87.851 113.182  0.00  0.00     0.006 C 
ENDBRANCH   8   9
BRANCH   8  11
ATOM     11  C   LIG d   1       3.966  84.872 113.095  0.00  0.00     0.028 C 
ATOM     12  C   LIG d   1       2.766  84.629 114.024  0.00  0.00     0.006 C 
ENDBRANCH   8  11
ENDBRANCH   7   8
ENDBRANCH   1   7
BRANCH   6  13
ATOM     13  N   LIG d   1       2.860  82.821 109.074  0.00  0.00    -0.311 N 
ATOM     14  C   LIG d   1       3.809  81.910 109.284  0.00  0.00     0.210 C 
ATOM     15  C   LIG d   1       4.520  81.413 108.021  0.00  0.00     0.109 C 
ATOM     16  O   LIG d   1       4.108  81.443 110.393  0.00  0.00    -0.276 OA
ATOM     17  H   LIG d   1       2.662  83.120 108.139  0.00  0.00     0.149 HD
ENDBRANCH   6  13
BRANCH   5  18
ATOM     18  N   LIG d   1       0.247  81.699 110.189  0.00  0.00     0.381 N 
ATOM     19  H   LIG d   1       0.736  81.176 109.491  0.00  0.00    -0.090 HD
ATOM     20  H   LIG d   1      -0.739  81.564 110.051  0.00  0.00    -0.090 HD
ATOM     21  H   LIG d   1       0.509  81.382 111.096  0.00  0.00    -0.090 HD
ENDBRANCH   5  18
BRANCH   3  22
ATOM     22  C   LIG d   1      -0.854  86.123 111.657  0.00  0.00     0.382 C 
ATOM     23  O   LIG d   1      -1.353  86.965 110.872  0.00  0.00    -0.241 OA
ATOM     24  O   LIG d   1      -1.209  86.113 112.851  0.00  0.00    -0.241 OA
ENDBRANCH   3  22
TORSDOF 7
ENDMDL
MODEL 3
REMARK VINA RESULT:      -6.1      2.651      4.247
REMARK  7 active torsions:
REMARK  status: ('A' for Active; 'I' for Inactive)
REMARK    1  A    between atoms: C_2  and  C_3 
REMARK    2  A    between atoms: C_3  and  O_6 
REMARK    3  A    between atoms: C_3  and  C_4 
REMARK    4  A    between atoms: C_7  and  O_6 
REMARK    5  A    between atoms: C_9  and  C_10 
REMARK    6  A    between atoms: N_15  and  C_14 
REMARK    7  A    between atoms: N_20  and  C_19 
REMARK       I    between atoms: C_22  and  N_20 
ROOT
ATOM      1  C   LIG d   1       0.434  82.639 111.176  0.00  0.00     0.161 C 
ATOM      2  C   LIG d   1      -0.682  82.351 111.979  0.00  0.00     0.016 C 
ATOM      3  C   LIG d   1      -1.258  81.064 112.078  0.00  0.00     0.038 C 
ATOM      4  C   LIG d   1      -0.660  79.937 111.494  0.00  0.00     0.028 C 
ATOM      5  C   LIG d   1       0.179  80.266 110.264  0.00  0.00    -0.047 C 
ATOM      6  C   LIG d   1       1.167  81.401 110.619  0.00  0.00     0.091 C 
ENDROOT
BRANCH   1   7
ATOM      7  O   LIG d   1       1.353  83.481 111.900  0.00  0.00    -0.368 OA
BRANCH   7   8
ATOM      8  C   LIG d   1       1.463  84.850 111.438  0.00  0.00     0.119 C 
BRANCH   8   9
ATOM      9  C   LIG d   1       0.492  85.018 110.253  0.00  0.00     0.028 C 
ATOM     10  C   LIG d   1      -0.545  86.126 110.497  0.00  0.00     0.006 C 
ENDBRANCH   8   9
BRANCH   8  11
ATOM     11  C   LIG d   1       2.855  85.135 110.866  0.00  0.00     0.028 C 
ATOM     12  C   LIG d   1       3.559  86.307 111.567  0.00  0.00     0.006 C 
ENDBRANCH   8  11
ENDBRANCH   7   8
ENDBRANCH   1   7
BRANCH   6  13
ATOM     13  N   LIG d   1       1.968  81.841 109.447  0.00  0.00    -0.311 N 
ATOM     14  C   LIG d   1       3.299  81.808 109.415  0.00  0.00     0.210 C 
ATOM     15  C   LIG d   1       3.928  82.327 108.118  0.00  0.00     0.109 C 
ATOM     16  O   LIG d   1       4.018  81.368 110.325  0.00  0.00    -0.276 OA
ATOM     17  H   LIG d   1       1.464  82.184 108.653  0.00  0.00     0.149 HD
ENDBRANCH   6  13
BRANCH   5  18
ATOM     18  N   LIG d   1       0.852  79.024 109.839  0.00  0.00     0.381 N 
ATOM     19  H   LIG d   1       1.772  78.987 110.232  0.00  0.00    -0.090 HD
ATOM     20  H   LIG d   1       0.937  79.027 108.838  0.00  0.00    -0.090 HD
ATOM     21  H   LIG d   1       0.325  78.232 110.133  0.00  0.00    -0.090 HD
ENDBRANCH   5  18
BRANCH   3  22
ATOM     22  C   LIG d   1      -2.468  80.901 112.736  0.00  0.00     0.382 C 
ATOM     23  O   LIG d   1      -3.096  81.905 113.150  0.00  0.00    -0.241 OA
ATOM     24  O   LIG d   1      -2.917  79.761 112.959  0.00  0.00    -0.241 OA
ENDBRANCH   3  22
TORSDOF 7
ENDMDL
MODEL 4
REMARK VINA RESULT:      -6.1      2.582      4.856
REMARK  7 active torsions:
REMARK  status: ('A' for Active; 'I' for Inactive)
REMARK    1  A    between atoms: C_2  and  C_3 
REMARK    2  A    between atoms: C_3  and  O_6 
REMARK    3  A    between atoms: C_3  and  C_4 
REMARK    4  A    between atoms: C_7  and  O_6 
REMARK    5  A    between atoms: C_9  and  C_10 
REMARK    6  A    between atoms: N_15  and  C_14 
REMARK    7  A    between atoms: N_20  and  C_19 
REMARK       I    between atoms: C_22  and  N_20 
ROOT
ATOM      1  C   LIG d   1       1.500  81.285 111.781  0.00  0.00     0.161 C 
ATOM      2  C   LIG d   1       2.630  81.806 111.129  0.00  0.00     0.016 C 
ATOM      3  C   LIG d   1       2.810  81.757 109.727  0.00  0.00     0.038 C 
ATOM      4  C   LIG d   1       1.795  81.317 108.864  0.00  0.00     0.028 C 
ATOM      5  C   LIG d   1       0.842  80.317 109.510  0.00  0.00    -0.047 C 
ATOM      6  C   LIG d   1       0.333  80.902 110.847  0.00  0.00     0.091 C 
ENDROOT
BRANCH   1   7
ATOM      7  O   LIG d   1       1.050  82.210 112.791  0.00  0.00    -0.368 OA
BRANCH   7   8
ATOM      8  C   LIG d   1       1.240  83.616 112.498  0.00  0.00     0.119 C 
BRANCH   8   9
ATOM      9  C   LIG d   1       1.632  84.314 113.815  0.00  0.00     0.028 C 
ATOM     10  C   LIG d   1       2.026  85.786 113.604  0.00  0.00     0.006 C 
ENDBRANCH   8   9
BRANCH   8  11
ATOM     11  C   LIG d   1      -0.071  84.277 112.063  0.00  0.00     0.028 C 
ATOM     12  C   LIG d   1      -0.111  84.589 110.559  0.00  0.00     0.006 C 
ENDBRANCH   8  11
ENDBRANCH   7   8
ENDBRANCH   1   7
BRANCH   6  13
ATOM     13  N   LIG d   1      -0.540  79.952 111.585  0.00  0.00    -0.311 N 
ATOM     14  C   LIG d   1      -1.669  80.314 112.193  0.00  0.00     0.210 C 
ATOM     15  C   LIG d   1      -2.407  79.181 112.913  0.00  0.00     0.109 C 
ATOM     16  O   LIG d   1      -2.145  81.459 112.177  0.00  0.00    -0.276 OA
ATOM     17  H   LIG d   1      -0.245  78.995 111.622  0.00  0.00     0.149 HD
ENDBRANCH   6  13
BRANCH   5  18
ATOM     18  N   LIG d   1      -0.242  80.049 108.546  0.00  0.00     0.381 N 
ATOM     19  H   LIG d   1       0.145  79.874 107.640  0.00  0.00    -0.090 HD
ATOM     20  H   LIG d   1      -0.831  80.861 108.485  0.00  0.00    -0.090 HD
ATOM     21  H   LIG d   1      -0.777  79.263 108.844  0.00  0.00    -0.090 HD
ENDBRANCH   5  18
BRANCH   3  22
ATOM     22  C   LIG d   1       4.032  82.115 109.179  0.00  0.00     0.382 C 
ATOM     23  O   LIG d   1       4.338  81.731 108.024  0.00  0.00    -0.241 OA
ATOM     24  O   LIG d   1       4.851  82.781 109.841  0.00  0.00    -0.241 OA
ENDBRANCH   3  22
TORSDOF 7
ENDMDL
MODEL 5
REMARK VINA RESULT:      -5.7      2.208      3.196
REMARK  7 active torsions:
REMARK  status: ('A' for Active; 'I' for Inactive)
REMARK    1  A    between atoms: C_2  and  C_3 
REMARK    2  A    between atoms: C_3  and  O_6 
REMARK    3  A    between atoms: C_3  and  C_4 
REMARK    4  A    between atoms: C_7  and  O_6 
REMARK    5  A    between atoms: C_9  and  C_10 
REMARK    6  A    between atoms: N_15  and  C_14 
REMARK    7  A    between atoms: N_20  and  C_19 
REMARK       I    between atoms: C_22  and  N_20 
ROOT
ATOM      1  C   LIG d   1       0.970  82.345 110.209  0.00  0.00     0.161 C 
ATOM      2  C   LIG d   1       1.344  83.642 109.820  0.00  0.00     0.016 C 
ATOM      3  C   LIG d   1       1.735  84.646 110.735  0.00  0.00     0.038 C 
ATOM      4  C   LIG d   1       1.925  84.374 112.098  0.00  0.00     0.028 C 
ATOM      5  C   LIG d   1       1.075  83.215 112.609  0.00  0.00    -0.047 C 
ATOM      6  C   LIG d   1       1.278  81.997 111.680  0.00  0.00     0.091 C 
ENDROOT
BRANCH   1   7
ATOM      7  O   LIG d   1       1.575  81.378 109.327  0.00  0.00    -0.368 OA
BRANCH   7   8
ATOM      8  C   LIG d   1       2.982  81.110 109.544  0.00  0.00     0.119 C 
BRANCH   8   9
ATOM      9  C   LIG d   1       3.764  81.796 108.407  0.00  0.00     0.028 C 
ATOM     10  C   LIG d   1       4.927  82.656 108.929  0.00  0.00     0.006 C 
ENDBRANCH   8   9
BRANCH   8  11
ATOM     11  C   LIG d   1       3.293  79.617 109.408  0.00  0.00     0.028 C 
ATOM     12  C   LIG d   1       2.284  78.877 108.515  0.00  0.00     0.006 C 
ENDBRANCH   8  11
ENDBRANCH   7   8
ENDBRANCH   1   7
BRANCH   6  13
ATOM     13  N   LIG d   1       0.418  80.845 112.059  0.00  0.00    -0.311 N 
ATOM     14  C   LIG d   1      -0.886  80.955 112.309  0.00  0.00     0.210 C 
ATOM     15  C   LIG d   1      -1.581  79.648 112.703  0.00  0.00     0.109 C 
ATOM     16  O   LIG d   1      -1.538  82.005 112.212  0.00  0.00    -0.276 OA
ATOM     17  H   LIG d   1       0.860  79.950 112.131  0.00  0.00     0.149 HD
ENDBRANCH   6  13
BRANCH   5  18
ATOM     18  N   LIG d   1       1.473  82.951 114.004  0.00  0.00     0.381 N 
ATOM     19  H   LIG d   1       1.432  81.969 114.188  0.00  0.00    -0.090 HD
ATOM     20  H   LIG d   1       0.828  83.415 114.620  0.00  0.00    -0.090 HD
ATOM     21  H   LIG d   1       2.397  83.288 114.165  0.00  0.00    -0.090 HD
ENDBRANCH   5  18
BRANCH   3  22
ATOM     22  C   LIG d   1       1.902  85.951 110.295  0.00  0.00     0.382 C 
ATOM     23  O   LIG d   1       1.410  86.309 109.198  0.00  0.00    -0.241 OA
ATOM     24  O   LIG d   1       2.575  86.761 110.960  0.00  0.00    -0.241 OA
ENDBRANCH   3  22
TORSDOF 7
ENDMDL
MODEL 6
REMARK VINA RESULT:      -5.2      1.971      5.406
REMARK  7 active torsions:
REMARK  status: ('A' for Active; 'I' for Inactive)
REMARK    1  A    between atoms: C_2  and  C_3 
REMARK    2  A    between atoms: C_3  and  O_6 
REMARK    3  A    between atoms: C_3  and  C_4 
REMARK    4  A    between atoms: C_7  and  O_6 
REMARK    5  A    between atoms: C_9  and  C_10 
REMARK    6  A    between atoms: N_15  and  C_14 
REMARK    7  A    between atoms: N_20  and  C_19 
REMARK       I    between atoms: C_22  and  N_20 
ROOT
ATOM      1  C   LIG d   1       1.396  82.263 110.972  0.00  0.00     0.161 C 
ATOM      2  C   LIG d   1       2.126  81.093 110.707  0.00  0.00     0.016 C 
ATOM      3  C   LIG d   1       2.612  80.753 109.424  0.00  0.00     0.038 C 
ATOM      4  C   LIG d   1       2.531  81.641 108.341  0.00  0.00     0.028 C 
ATOM      5  C   LIG d   1       1.360  82.612 108.441  0.00  0.00    -0.047 C 
ATOM      6  C   LIG d   1       1.393  83.297 109.826  0.00  0.00     0.091 C 
ENDROOT
BRANCH   1   7
ATOM      7  O   LIG d   1       1.868  82.868 112.192  0.00  0.00    -0.368 OA
BRANCH   7   8
ATOM      8  C   LIG d   1       2.559  84.134 112.049  0.00  0.00     0.119 C 
BRANCH   8   9
ATOM      9  C   LIG d   1       4.070  83.851 112.156  0.00  0.00     0.028 C 
ATOM     10  C   LIG d   1       4.747  83.748 110.778  0.00  0.00     0.006 C 
ENDBRANCH   8   9
BRANCH   8  11
ATOM     11  C   LIG d   1       2.240  85.077 113.213  0.00  0.00     0.028 C 
ATOM     12  C   LIG d   1       3.457  85.344 114.114  0.00  0.00     0.006 C 
ENDBRANCH   8  11
ENDBRANCH   7   8
ENDBRANCH   1   7
BRANCH   6  13
ATOM     13  N   LIG d   1       0.234  84.202 110.040  0.00  0.00    -0.311 N 
ATOM     14  C   LIG d   1       0.271  85.511 109.798  0.00  0.00     0.210 C 
ATOM     15  C   LIG d   1      -1.028  86.263 110.105  0.00  0.00     0.109 C 
ATOM     16  O   LIG d   1       1.247  86.116 109.329  0.00  0.00    -0.276 OA
ATOM     17  H   LIG d   1      -0.609  83.789 110.389  0.00  0.00     0.149 HD
ENDBRANCH   6  13
BRANCH   5  18
ATOM     18  N   LIG d   1       1.475  83.566 107.322  0.00  0.00     0.381 N 
ATOM     19  H   LIG d   1       1.471  84.503 107.673  0.00  0.00    -0.090 HD
ATOM     20  H   LIG d   1       0.682  83.454 106.715  0.00  0.00    -0.090 HD
ATOM     21  H   LIG d   1       2.316  83.397 106.815  0.00  0.00    -0.090 HD
ENDBRANCH   5  18
BRANCH   3  22
ATOM     22  C   LIG d   1       3.153  79.495 109.205  0.00  0.00     0.382 C 
ATOM     23  O   LIG d   1       2.396  78.507 109.042  0.00  0.00    -0.241 OA
ATOM     24  O   LIG d   1       4.387  79.327 109.212  0.00  0.00    -0.241 OA
ENDBRANCH   3  22
TORSDOF 7
ENDMDL
MODEL 7
REMARK VINA RESULT:      -5.1      3.233      5.844
REMARK  7 active torsions:
REMARK  status: ('A' for Active; 'I' for Inactive)
REMARK    1  A    between atoms: C_2  and  C_3 
REMARK    2  A    between atoms: C_3  and  O_6 
REMARK    3  A    between atoms: C_3  and  C_4 
REMARK    4  A    between atoms: C_7  and  O_6 
REMARK    5  A    between atoms: C_9  and  C_10 
REMARK    6  A    between atoms: N_15  and  C_14 
REMARK    7  A    between atoms: N_20  and  C_19 
REMARK       I    between atoms: C_22  and  N_20 
ROOT
ATOM      1  C   LIG d   1      -0.140  80.525 111.282  0.00  0.00     0.161 C 
ATOM      2  C   LIG d   1      -0.649  79.258 110.954  0.00  0.00     0.016 C 
ATOM      3  C   LIG d   1      -1.852  78.741 111.486  0.00  0.00     0.038 C 
ATOM      4  C   LIG d   1      -2.711  79.523 112.273  0.00  0.00     0.028 C 
ATOM      5  C   LIG d   1      -1.992  80.629 113.039  0.00  0.00    -0.047 C 
ATOM      6  C   LIG d   1      -1.119  81.436 112.051  0.00  0.00     0.091 C 
ENDROOT
BRANCH   1   7
ATOM      7  O   LIG d   1       0.329  81.187 110.090  0.00  0.00    -0.368 OA
BRANCH   7   8
ATOM      8  C   LIG d   1       1.761  81.168 109.872  0.00  0.00     0.119 C 
BRANCH   8   9
ATOM      9  C   LIG d   1       2.212  82.620 109.624  0.00  0.00     0.028 C 
ATOM     10  C   LIG d   1       1.797  83.135 108.236  0.00  0.00     0.006 C 
ENDBRANCH   8   9
BRANCH   8  11
ATOM     11  C   LIG d   1       2.119  80.408 108.591  0.00  0.00     0.028 C 
ATOM     12  C   LIG d   1       2.455  78.931 108.848  0.00  0.00     0.006 C 
ENDBRANCH   8  11
ENDBRANCH   7   8
ENDBRANCH   1   7
BRANCH   6  13
ATOM     13  N   LIG d   1      -0.316  82.486 112.732  0.00  0.00    -0.311 N 
ATOM     14  C   LIG d   1      -0.135  83.708 112.235  0.00  0.00     0.210 C 
ATOM     15  C   LIG d   1       0.743  84.629 113.088  0.00  0.00     0.109 C 
ATOM     16  O   LIG d   1      -0.645  84.127 111.185  0.00  0.00    -0.276 OA
ATOM     17  H   LIG d   1       0.108  82.241 113.606  0.00  0.00     0.149 HD
ENDBRANCH   6  13
BRANCH   5  18
ATOM     18  N   LIG d   1      -3.021  81.449 113.706  0.00  0.00     0.381 N 
ATOM     19  H   LIG d   1      -3.540  80.885 114.348  0.00  0.00    -0.090 HD
ATOM     20  H   LIG d   1      -3.655  81.803 113.011  0.00  0.00    -0.090 HD
ATOM     21  H   LIG d   1      -2.591  82.207 114.190  0.00  0.00    -0.090 HD
ENDBRANCH   5  18
BRANCH   3  22
ATOM     22  C   LIG d   1      -2.187  77.413 111.266  0.00  0.00     0.382 C 
ATOM     23  O   LIG d   1      -2.926  77.105 110.300  0.00  0.00    -0.241 OA
ATOM     24  O   LIG d   1      -1.795  76.525 112.046  0.00  0.00    -0.241 OA
ENDBRANCH   3  22
TORSDOF 7
ENDMDL
MODEL 8
REMARK VINA RESULT:      -4.9      2.112      3.024
REMARK  7 active torsions:
REMARK  status: ('A' for Active; 'I' for Inactive)
REMARK    1  A    between atoms: C_2  and  C_3 
REMARK    2  A    between atoms: C_3  and  O_6 
REMARK    3  A    between atoms: C_3  and  C_4 
REMARK    4  A    between atoms: C_7  and  O_6 
REMARK    5  A    between atoms: C_9  and  C_10 
REMARK    6  A    between atoms: N_15  and  C_14 
REMARK    7  A    between atoms: N_20  and  C_19 
REMARK       I    between atoms: C_22  and  N_20 
ROOT
ATOM      1  C   LIG d   1       0.598  83.813 111.018  0.00  0.00     0.161 C 
ATOM      2  C   LIG d   1       1.221  85.070 111.096  0.00  0.00     0.016 C 
ATOM      3  C   LIG d   1       1.950  85.508 112.225  0.00  0.00     0.038 C 
ATOM      4  C   LIG d   1       2.236  84.654 113.300  0.00  0.00     0.028 C 
ATOM      5  C   LIG d   1       1.202  83.549 113.487  0.00  0.00    -0.047 C 
ATOM      6  C   LIG d   1       0.992  82.826 112.137  0.00  0.00     0.091 C 
ENDROOT
BRANCH   1   7
ATOM      7  O   LIG d   1       0.840  83.227 109.724  0.00  0.00    -0.368 OA
BRANCH   7   8
ATOM      8  C   LIG d   1       2.094  83.579 109.089  0.00  0.00     0.119 C 
BRANCH   8   9
ATOM      9  C   LIG d   1       1.877  83.511 107.565  0.00  0.00     0.028 C 
ATOM     10  C   LIG d   1       1.203  84.777 107.012  0.00  0.00     0.006 C 
ENDBRANCH   8   9
BRANCH   8  11
ATOM     11  C   LIG d   1       3.181  82.543 109.391  0.00  0.00     0.028 C 
ATOM     12  C   LIG d   1       3.850  81.994 108.120  0.00  0.00     0.006 C 
ENDBRANCH   8  11
ENDBRANCH   7   8
ENDBRANCH   1   7
BRANCH   6  13
ATOM     13  N   LIG d   1      -0.066  81.784 112.210  0.00  0.00    -0.311 N 
ATOM     14  C   LIG d   1      -0.029  80.652 111.510  0.00  0.00     0.210 C 
ATOM     15  C   LIG d   1      -1.230  79.724 111.718  0.00  0.00     0.109 C 
ATOM     16  O   LIG d   1       0.899  80.313 110.761  0.00  0.00    -0.276 OA
ATOM     17  H   LIG d   1      -0.841  81.963 112.818  0.00  0.00     0.149 HD
ENDBRANCH   6  13
BRANCH   5  18
ATOM     18  N   LIG d   1       1.694  82.654 114.551  0.00  0.00     0.381 N 
ATOM     19  H   LIG d   1       1.000  82.564 115.266  0.00  0.00    -0.090 HD
ATOM     20  H   LIG d   1       2.518  83.058 114.961  0.00  0.00    -0.090 HD
ATOM     21  H   LIG d   1       1.908  81.758 114.172  0.00  0.00    -0.090 HD
ENDBRANCH   5  18
BRANCH   3  22
ATOM     22  C   LIG d   1       2.369  86.828 112.302  0.00  0.00     0.382 C 
ATOM     23  O   LIG d   1       2.715  87.438 111.262  0.00  0.00    -0.241 OA
ATOM     24  O   LIG d   1       2.447  87.402 113.405  0.00  0.00    -0.241 OA
ENDBRANCH   3  22
TORSDOF 7
ENDMDL
MODEL 9
REMARK VINA RESULT:      -4.5      2.250      3.707
REMARK  7 active torsions:
REMARK  status: ('A' for Active; 'I' for Inactive)
REMARK    1  A    between atoms: C_2  and  C_3 
REMARK    2  A    between atoms: C_3  and  O_6 
REMARK    3  A    between atoms: C_3  and  C_4 
REMARK    4  A    between atoms: C_7  and  O_6 
REMARK    5  A    between atoms: C_9  and  C_10 
REMARK    6  A    between atoms: N_15  and  C_14 
REMARK    7  A    between atoms: N_20  and  C_19 
REMARK       I    between atoms: C_22  and  N_20 
ROOT
ATOM      1  C   LIG d   1       2.794  83.086 111.122  0.00  0.00     0.161 C 
ATOM      2  C   LIG d   1       2.638  84.302 111.807  0.00  0.00     0.016 C 
ATOM      3  C   LIG d   1       2.033  85.445 111.236  0.00  0.00     0.038 C 
ATOM      4  C   LIG d   1       1.403  85.403 109.984  0.00  0.00     0.028 C 
ATOM      5  C   LIG d   1       1.979  84.343 109.052  0.00  0.00    -0.047 C 
ATOM      6  C   LIG d   1       2.013  82.987 109.794  0.00  0.00     0.091 C 
ENDROOT
BRANCH   1   7
ATOM      7  O   LIG d   1       2.448  81.988 111.989  0.00  0.00    -0.368 OA
BRANCH   7   8
ATOM      8  C   LIG d   1       1.103  82.001 112.528  0.00  0.00     0.119 C 
BRANCH   8   9
ATOM      9  C   LIG d   1       1.193  81.583 114.008  0.00  0.00     0.028 C 
ATOM     10  C   LIG d   1       2.629  81.665 114.555  0.00  0.00     0.006 C 
ENDBRANCH   8   9
BRANCH   8  11
ATOM     11  C   LIG d   1       0.225  80.939 111.860  0.00  0.00     0.028 C 
ATOM     12  C   LIG d   1      -0.914  80.449 112.768  0.00  0.00     0.006 C 
ENDBRANCH   8  11
ENDBRANCH   7   8
ENDBRANCH   1   7
BRANCH   6  13
ATOM     13  N   LIG d   1       2.641  81.912 108.983  0.00  0.00    -0.311 N 
ATOM     14  C   LIG d   1       3.934  81.892 108.666  0.00  0.00     0.210 C 
ATOM     15  C   LIG d   1       4.371  80.703 107.805  0.00  0.00     0.109 C 
ATOM     16  O   LIG d   1       4.768  82.729 109.044  0.00  0.00    -0.276 OA
ATOM     17  H   LIG d   1       2.043  81.176 108.661  0.00  0.00     0.149 HD
ENDBRANCH   6  13
BRANCH   5  18
ATOM     18  N   LIG d   1       1.142  84.315 107.837  0.00  0.00     0.381 N 
ATOM     19  H   LIG d   1       1.662  83.926 107.076  0.00  0.00    -0.090 HD
ATOM     20  H   LIG d   1       0.887  85.257 107.596  0.00  0.00    -0.090 HD
ATOM     21  H   LIG d   1       0.322  83.773 108.000  0.00  0.00    -0.090 HD
ENDBRANCH   5  18
BRANCH   3  22
ATOM     22  C   LIG d   1       2.090  86.659 111.904  0.00  0.00     0.382 C 
ATOM     23  O   LIG d   1       1.406  86.837 112.941  0.00  0.00    -0.241 OA
ATOM     24  O   LIG d   1       2.783  87.594 111.459  0.00  0.00    -0.241 OA
ENDBRANCH   3  22
TORSDOF 7
ENDMDL
