MODEL 1
REMARK VINA RESULT:      -6.5      0.000      0.000
REMARK  7 active torsions:
REMARK  status: ('A' for Active; 'I' for Inactive)
REMARK    1  A    between atoms: C_2  and  C_3 
REMARK    2  A    between atoms: C_3  and  O_6 
REMARK    3  A    between atoms: C_3  and  C_4 
REMARK    4  A    between atoms: C_7  and  O_6 
REMARK    5  A    between atoms: C_9  and  C_10 
REMARK    6  A    between atoms: N_15  and  C_14 
REMARK    7  A    between atoms: N_20  and  C_19 
REMARK       I    between atoms: C_22  and  N_20 
ROOT
ATOM      1  C   LIG d   1       1.132  83.570 109.252  0.00  0.00     0.161 C 
ATOM      2  C   LIG d   1       0.820  84.847 109.749  0.00  0.00     0.016 C 
ATOM      3  C   LIG d   1       0.017  85.062 110.892  0.00  0.00     0.038 C 
ATOM      4  C   LIG d   1      -0.408  84.004 111.710  0.00  0.00     0.028 C 
ATOM      5  C   LIG d   1      -0.541  82.679 110.966  0.00  0.00    -0.047 C 
ATOM      6  C   LIG d   1       0.770  82.403 110.194  0.00  0.00     0.091 C 
ENDROOT
BRANCH   1   7
ATOM      7  O   LIG d   1       2.527  83.512 108.895  0.00  0.00    -0.368 OA
BRANCH   7   8
ATOM      8  C   LIG d   1       3.453  83.267 109.982  0.00  0.00     0.119 C 
BRANCH   8   9
ATOM      9  C   LIG d   1       4.013  84.631 110.430  0.00  0.00     0.028 C 
ATOM     10  C   LIG d   1       3.694  84.941 111.902  0.00  0.00     0.006 C 
ENDBRANCH   8   9
BRANCH   8  11
ATOM     11  C   LIG d   1       4.669  82.465 109.508  0.00  0.00     0.028 C 
ATOM     12  C   LIG d   1       4.420  81.734 108.180  0.00  0.00     0.006 C 
ENDBRANCH   8  11
ENDBRANCH   7   8
ENDBRANCH   1   7
BRANCH   6  13
ATOM     13  N   LIG d   1       0.694  81.168 109.371  0.00  0.00    -0.311 N 
ATOM     14  C   LIG d   1       1.499  80.121 109.545  0.00  0.00     0.210 C 
ATOM     15  C   LIG d   1       1.265  78.958 108.576  0.00  0.00     0.109 C 
ATOM     16  O   LIG d   1       2.363  80.032 110.430  0.00  0.00    -0.276 OA
ATOM     17  H   LIG d   1      -0.000  81.142 108.650  0.00  0.00     0.149 HD
ENDBRANCH   6  13
BRANCH   5  18
ATOM     18  N   LIG d   1      -0.855  81.638 111.962  0.00  0.00     0.381 N 
ATOM     19  H   LIG d   1      -0.087  81.003 112.042  0.00  0.00    -0.090 HD
ATOM     20  H   LIG d   1      -1.659  81.122 111.650  0.00  0.00    -0.090 HD
ATOM     21  H   LIG d   1      -1.043  82.057 112.846  0.00  0.00    -0.090 HD
ENDBRANCH   5  18
BRANCH   3  22
ATOM     22  C   LIG d   1      -0.403  86.345 111.205  0.00  0.00     0.382 C 
ATOM     23  O   LIG d   1       0.415  87.296 111.180  0.00  0.00    -0.241 OA
ATOM     24  O   LIG d   1      -1.580  86.557 111.555  0.00  0.00    -0.241 OA
ENDBRANCH   3  22
TORSDOF 7
ENDMDL
MODEL 2
REMARK VINA RESULT:      -6.5      2.516      4.153
REMARK  7 active torsions:
REMARK  status: ('A' for Active; 'I' for Inactive)
REMARK    1  A    between atoms: C_2  and  C_3 
REMARK    2  A    between atoms: C_3  and  O_6 
REMARK    3  A    between atoms: C_3  and  C_4 
REMARK    4  A    between atoms: C_7  and  O_6 
REMARK    5  A    between atoms: C_9  and  C_10 
REMARK    6  A    between atoms: N_15  and  C_14 
REMARK    7  A    between atoms: N_20  and  C_19 
REMARK       I    between atoms: C_22  and  N_20 
ROOT
ATOM      1  C   LIG d   1       0.262  82.626 111.065  0.00  0.00     0.161 C 
ATOM      2  C   LIG d   1      -0.850  82.320 111.868  0.00  0.00     0.016 C 
ATOM      3  C   LIG d   1      -1.296  81.000 112.109  0.00  0.00     0.038 C 
ATOM      4  C   LIG d   1      -0.564  79.881 111.684  0.00  0.00     0.028 C 
ATOM      5  C   LIG d   1       0.284  80.147 110.446  0.00  0.00    -0.047 C 
ATOM      6  C   LIG d   1       1.137  81.414 110.684  0.00  0.00     0.091 C 
ENDROOT
BRANCH   1   7
ATOM      7  O   LIG d   1       1.061  83.641 111.704  0.00  0.00    -0.368 OA
BRANCH   7   8
ATOM      8  C   LIG d   1       1.072  84.940 111.064  0.00  0.00     0.119 C 
BRANCH   8   9
ATOM      9  C   LIG d   1       0.245  84.826 109.769  0.00  0.00     0.028 C 
ATOM     10  C   LIG d   1      -0.831  85.919 109.661  0.00  0.00     0.006 C 
ENDBRANCH   8   9
BRANCH   8  11
ATOM     11  C   LIG d   1       2.483  85.327 110.611  0.00  0.00     0.028 C 
ATOM     12  C   LIG d   1       3.567  84.911 111.618  0.00  0.00     0.006 C 
ENDBRANCH   8  11
ENDBRANCH   7   8
ENDBRANCH   1   7
BRANCH   6  13
ATOM     13  N   LIG d   1       1.935  81.793 109.489  0.00  0.00    -0.311 N 
ATOM     14  C   LIG d   1       3.265  81.873 109.490  0.00  0.00     0.210 C 
ATOM     15  C   LIG d   1       3.888  82.301 108.158  0.00  0.00     0.109 C 
ATOM     16  O   LIG d   1       3.989  81.598 110.458  0.00  0.00    -0.276 OA
ATOM     17  H   LIG d   1       1.429  82.003 108.651  0.00  0.00     0.149 HD
ENDBRANCH   6  13
BRANCH   5  18
ATOM     18  N   LIG d   1       1.097  78.942 110.195  0.00  0.00     0.381 N 
ATOM     19  H   LIG d   1       0.499  78.146 110.091  0.00  0.00    -0.090 HD
ATOM     20  H   LIG d   1       1.697  78.784 110.985  0.00  0.00    -0.090 HD
ATOM     21  H   LIG d   1       1.645  79.065 109.372  0.00  0.00    -0.090 HD
ENDBRANCH   5  18
BRANCH   3  22
ATOM     22  C   LIG d   1      -2.507  80.790 112.750  0.00  0.00     0.382 C 
ATOM     23  O   LIG d   1      -3.483  81.541 112.507  0.00  0.00    -0.241 OA
ATOM     24  O   LIG d   1      -2.625  79.888 113.601  0.00  0.00    -0.241 OA
ENDBRANCH   3  22
TORSDOF 7
ENDMDL
MODEL 3
REMARK VINA RESULT:      -6.4      2.499      4.848
REMARK  7 active torsions:
REMARK  status: ('A' for Active; 'I' for Inactive)
REMARK    1  A    between atoms: C_2  and  C_3 
REMARK    2  A    between atoms: C_3  and  O_6 
REMARK    3  A    between atoms: C_3  and  C_4 
REMARK    4  A    between atoms: C_7  and  O_6 
REMARK    5  A    between atoms: C_9  and  C_10 
REMARK    6  A    between atoms: N_15  and  C_14 
REMARK    7  A    between atoms: N_20  and  C_19 
REMARK       I    between atoms: C_22  and  N_20 
ROOT
ATOM      1  C   LIG d   1       1.276  81.384 111.742  0.00  0.00     0.161 C 
ATOM      2  C   LIG d   1       2.189  81.828 110.771  0.00  0.00     0.016 C 
ATOM      3  C   LIG d   1       2.222  81.329 109.449  0.00  0.00     0.038 C 
ATOM      4  C   LIG d   1       1.240  80.454 108.961  0.00  0.00     0.028 C 
ATOM      5  C   LIG d   1       0.601  79.595 110.047  0.00  0.00    -0.047 C 
ATOM      6  C   LIG d   1       0.126  80.512 111.197  0.00  0.00     0.091 C 
ENDROOT
BRANCH   1   7
ATOM      7  O   LIG d   1       0.748  82.512 112.468  0.00  0.00    -0.368 OA
BRANCH   7   8
ATOM      8  C   LIG d   1       0.868  83.801 111.819  0.00  0.00     0.119 C 
BRANCH   8   9
ATOM      9  C   LIG d   1       1.369  84.807 112.873  0.00  0.00     0.028 C 
ATOM     10  C   LIG d   1       2.847  85.181 112.672  0.00  0.00     0.006 C 
ENDBRANCH   8   9
BRANCH   8  11
ATOM     11  C   LIG d   1      -0.498  84.329 111.372  0.00  0.00     0.028 C 
ATOM     12  C   LIG d   1      -0.436  85.090 110.038  0.00  0.00     0.006 C 
ENDBRANCH   8  11
ENDBRANCH   7   8
ENDBRANCH   1   7
BRANCH   6  13
ATOM     13  N   LIG d   1      -0.436  79.743 112.339  0.00  0.00    -0.311 N 
ATOM     14  C   LIG d   1      -1.648  79.964 112.846  0.00  0.00     0.210 C 
ATOM     15  C   LIG d   1      -2.024  79.074 114.034  0.00  0.00     0.109 C 
ATOM     16  O   LIG d   1      -2.459  80.791 112.404  0.00  0.00    -0.276 OA
ATOM     17  H   LIG d   1       0.143  79.032 112.739  0.00  0.00     0.149 HD
ENDBRANCH   6  13
BRANCH   5  18
ATOM     18  N   LIG d   1      -0.497  78.832 109.424  0.00  0.00     0.381 N 
ATOM     19  H   LIG d   1      -0.140  78.281 108.669  0.00  0.00    -0.090 HD
ATOM     20  H   LIG d   1      -1.170  79.478 109.051  0.00  0.00    -0.090 HD
ATOM     21  H   LIG d   1      -0.930  78.243 110.100  0.00  0.00    -0.090 HD
ENDBRANCH   5  18
BRANCH   3  22
ATOM     22  C   LIG d   1       3.271  81.674 108.610  0.00  0.00     0.382 C 
ATOM     23  O   LIG d   1       3.094  82.519 107.699  0.00  0.00    -0.241 OA
ATOM     24  O   LIG d   1       4.381  81.120 108.725  0.00  0.00    -0.241 OA
ENDBRANCH   3  22
TORSDOF 7
ENDMDL
MODEL 4
REMARK VINA RESULT:      -6.3      2.491      4.041
REMARK  7 active torsions:
REMARK  status: ('A' for Active; 'I' for Inactive)
REMARK    1  A    between atoms: C_2  and  C_3 
REMARK    2  A    between atoms: C_3  and  O_6 
REMARK    3  A    between atoms: C_3  and  C_4 
REMARK    4  A    between atoms: C_7  and  O_6 
REMARK    5  A    between atoms: C_9  and  C_10 
REMARK    6  A    between atoms: N_15  and  C_14 
REMARK    7  A    between atoms: N_20  and  C_19 
REMARK       I    between atoms: C_22  and  N_20 
ROOT
ATOM      1  C   LIG d   1       1.797  84.922 111.431  0.00  0.00     0.161 C 
ATOM      2  C   LIG d   1       2.411  86.174 111.605  0.00  0.00     0.016 C 
ATOM      3  C   LIG d   1       2.963  86.606 112.832  0.00  0.00     0.038 C 
ATOM      4  C   LIG d   1       3.074  85.750 113.938  0.00  0.00     0.028 C 
ATOM      5  C   LIG d   1       2.016  84.652 113.962  0.00  0.00    -0.047 C 
ATOM      6  C   LIG d   1       2.009  83.931 112.594  0.00  0.00     0.091 C 
ENDROOT
BRANCH   1   7
ATOM      7  O   LIG d   1       2.230  84.335 110.187  0.00  0.00    -0.368 OA
BRANCH   7   8
ATOM      8  C   LIG d   1       1.193  84.078 109.209  0.00  0.00     0.119 C 
BRANCH   8   9
ATOM      9  C   LIG d   1       1.860  83.408 107.992  0.00  0.00     0.028 C 
ATOM     10  C   LIG d   1       3.069  82.544 108.387  0.00  0.00     0.006 C 
ENDBRANCH   8   9
BRANCH   8  11
ATOM     11  C   LIG d   1       0.593  85.382 108.676  0.00  0.00     0.028 C 
ATOM     12  C   LIG d   1      -0.669  85.814 109.440  0.00  0.00     0.006 C 
ENDBRANCH   8  11
ENDBRANCH   7   8
ENDBRANCH   1   7
BRANCH   6  13
ATOM     13  N   LIG d   1       0.944  82.898 112.504  0.00  0.00    -0.311 N 
ATOM     14  C   LIG d   1       1.155  81.667 112.040  0.00  0.00     0.210 C 
ATOM     15  C   LIG d   1      -0.083  80.766 112.014  0.00  0.00     0.109 C 
ATOM     16  O   LIG d   1       2.257  81.227 111.679  0.00  0.00    -0.276 OA
ATOM     17  H   LIG d   1       0.026  83.161 112.805  0.00  0.00     0.149 HD
ENDBRANCH   6  13
BRANCH   5  18
ATOM     18  N   LIG d   1       2.333  83.752 115.087  0.00  0.00     0.381 N 
ATOM     19  H   LIG d   1       1.508  83.263 115.372  0.00  0.00    -0.090 HD
ATOM     20  H   LIG d   1       2.656  84.303 115.863  0.00  0.00    -0.090 HD
ATOM     21  H   LIG d   1       3.037  83.102 114.816  0.00  0.00    -0.090 HD
ENDBRANCH   5  18
BRANCH   3  22
ATOM     22  C   LIG d   1       3.375  87.922 112.975  0.00  0.00     0.382 C 
ATOM     23  O   LIG d   1       2.777  88.684 113.773  0.00  0.00    -0.241 OA
ATOM     24  O   LIG d   1       4.309  88.371 112.284  0.00  0.00    -0.241 OA
ENDBRANCH   3  22
TORSDOF 7
ENDMDL
MODEL 5
REMARK VINA RESULT:      -6.0      2.485      4.730
REMARK  7 active torsions:
REMARK  status: ('A' for Active; 'I' for Inactive)
REMARK    1  A    between atoms: C_2  and  C_3 
REMARK    2  A    between atoms: C_3  and  O_6 
REMARK    3  A    between atoms: C_3  and  C_4 
REMARK    4  A    between atoms: C_7  and  O_6 
REMARK    5  A    between atoms: C_9  and  C_10 
REMARK    6  A    between atoms: N_15  and  C_14 
REMARK    7  A    between atoms: N_20  and  C_19 
REMARK       I    between atoms: C_22  and  N_20 
ROOT
ATOM      1  C   LIG d   1       1.900  82.387 111.854  0.00  0.00     0.161 C 
ATOM      2  C   LIG d   1       0.836  81.471 111.886  0.00  0.00     0.016 C 
ATOM      3  C   LIG d   1      -0.524  81.855 111.829  0.00  0.00     0.038 C 
ATOM      4  C   LIG d   1      -0.909  83.181 111.583  0.00  0.00     0.028 C 
ATOM      5  C   LIG d   1       0.118  84.207 112.049  0.00  0.00    -0.047 C 
ATOM      6  C   LIG d   1       1.502  83.828 111.474  0.00  0.00     0.091 C 
ENDROOT
BRANCH   1   7
ATOM      7  O   LIG d   1       2.934  81.904 110.974  0.00  0.00    -0.368 OA
BRANCH   7   8
ATOM      8  C   LIG d   1       2.535  81.641 109.606  0.00  0.00     0.119 C 
BRANCH   8   9
ATOM      9  C   LIG d   1       2.920  80.185 109.283  0.00  0.00     0.028 C 
ATOM     10  C   LIG d   1       1.696  79.313 108.958  0.00  0.00     0.006 C 
ENDBRANCH   8   9
BRANCH   8  11
ATOM     11  C   LIG d   1       3.332  82.500 108.619  0.00  0.00     0.028 C 
ATOM     12  C   LIG d   1       4.680  82.969 109.190  0.00  0.00     0.006 C 
ENDBRANCH   8  11
ENDBRANCH   7   8
ENDBRANCH   1   7
BRANCH   6  13
ATOM     13  N   LIG d   1       2.581  84.733 111.950  0.00  0.00    -0.311 N 
ATOM     14  C   LIG d   1       2.841  85.917 111.399  0.00  0.00     0.210 C 
ATOM     15  C   LIG d   1       4.009  86.682 112.030  0.00  0.00     0.109 C 
ATOM     16  O   LIG d   1       2.195  86.421 110.468  0.00  0.00    -0.276 OA
ATOM     17  H   LIG d   1       3.134  84.416 112.722  0.00  0.00     0.149 HD
ENDBRANCH   6  13
BRANCH   5  18
ATOM     18  N   LIG d   1      -0.347  85.536 111.607  0.00  0.00     0.381 N 
ATOM     19  H   LIG d   1       0.419  86.053 111.224  0.00  0.00    -0.090 HD
ATOM     20  H   LIG d   1      -0.699  86.038 112.403  0.00  0.00    -0.090 HD
ATOM     21  H   LIG d   1      -1.065  85.436 110.924  0.00  0.00    -0.090 HD
ENDBRANCH   5  18
BRANCH   3  22
ATOM     22  C   LIG d   1      -1.515  80.913 112.059  0.00  0.00     0.382 C 
ATOM     23  O   LIG d   1      -1.262  79.692 111.925  0.00  0.00    -0.241 OA
ATOM     24  O   LIG d   1      -2.670  81.271 112.357  0.00  0.00    -0.241 OA
ENDBRANCH   3  22
TORSDOF 7
ENDMDL
MODEL 6
REMARK VINA RESULT:      -6.0      2.421      4.633
REMARK  7 active torsions:
REMARK  status: ('A' for Active; 'I' for Inactive)
REMARK    1  A    between atoms: C_2  and  C_3 
REMARK    2  A    between atoms: C_3  and  O_6 
REMARK    3  A    between atoms: C_3  and  C_4 
REMARK    4  A    between atoms: C_7  and  O_6 
REMARK    5  A    between atoms: C_9  and  C_10 
REMARK    6  A    between atoms: N_15  and  C_14 
REMARK    7  A    between atoms: N_20  and  C_19 
REMARK       I    between atoms: C_22  and  N_20 
ROOT
ATOM      1  C   LIG d   1      -0.033  82.052 111.313  0.00  0.00     0.161 C 
ATOM      2  C   LIG d   1      -0.526  83.296 111.741  0.00  0.00     0.016 C 
ATOM      3  C   LIG d   1      -0.230  84.516 111.090  0.00  0.00     0.038 C 
ATOM      4  C   LIG d   1       0.462  84.557 109.871  0.00  0.00     0.028 C 
ATOM      5  C   LIG d   1       1.407  83.377 109.670  0.00  0.00    -0.047 C 
ATOM      6  C   LIG d   1       0.631  82.064 109.920  0.00  0.00     0.091 C 
ENDROOT
BRANCH   1   7
ATOM      7  O   LIG d   1      -1.086  81.068 111.357  0.00  0.00    -0.368 OA
BRANCH   7   8
ATOM      8  C   LIG d   1      -0.966  80.053 112.384  0.00  0.00     0.119 C 
BRANCH   8   9
ATOM      9  C   LIG d   1      -1.077  78.680 111.693  0.00  0.00     0.028 C 
ATOM     10  C   LIG d   1      -1.797  77.639 112.567  0.00  0.00     0.006 C 
ENDBRANCH   8   9
BRANCH   8  11
ATOM     11  C   LIG d   1      -2.142  80.110 113.364  0.00  0.00     0.028 C 
ATOM     12  C   LIG d   1      -3.261  81.054 112.897  0.00  0.00     0.006 C 
ENDBRANCH   8  11
ENDBRANCH   7   8
ENDBRANCH   1   7
BRANCH   6  13
ATOM     13  N   LIG d   1       1.503  80.864 109.828  0.00  0.00    -0.311 N 
ATOM     14  C   LIG d   1       1.164  79.761 109.163  0.00  0.00     0.210 C 
ATOM     15  C   LIG d   1       2.199  78.633 109.211  0.00  0.00     0.109 C 
ATOM     16  O   LIG d   1       0.117  79.621 108.512  0.00  0.00    -0.276 OA
ATOM     17  H   LIG d   1       2.385  80.903 110.301  0.00  0.00     0.149 HD
ENDBRANCH   6  13
BRANCH   5  18
ATOM     18  N   LIG d   1       1.957  83.473 108.305  0.00  0.00     0.381 N 
ATOM     19  H   LIG d   1       2.947  83.609 108.347  0.00  0.00    -0.090 HD
ATOM     20  H   LIG d   1       1.549  84.268 107.845  0.00  0.00    -0.090 HD
ATOM     21  H   LIG d   1       1.750  82.643 107.795  0.00  0.00    -0.090 HD
ENDBRANCH   5  18
BRANCH   3  22
ATOM     22  C   LIG d   1      -0.593  85.716 111.682  0.00  0.00     0.382 C 
ATOM     23  O   LIG d   1      -1.136  85.718 112.813  0.00  0.00    -0.241 OA
ATOM     24  O   LIG d   1      -0.425  86.794 111.080  0.00  0.00    -0.241 OA
ENDBRANCH   3  22
TORSDOF 7
ENDMDL
MODEL 7
REMARK VINA RESULT:      -5.9      2.412      5.737
REMARK  7 active torsions:
REMARK  status: ('A' for Active; 'I' for Inactive)
REMARK    1  A    between atoms: C_2  and  C_3 
REMARK    2  A    between atoms: C_3  and  O_6 
REMARK    3  A    between atoms: C_3  and  C_4 
REMARK    4  A    between atoms: C_7  and  O_6 
REMARK    5  A    between atoms: C_9  and  C_10 
REMARK    6  A    between atoms: N_15  and  C_14 
REMARK    7  A    between atoms: N_20  and  C_19 
REMARK       I    between atoms: C_22  and  N_20 
ROOT
ATOM      1  C   LIG d   1       1.243  82.905 110.554  0.00  0.00     0.161 C 
ATOM      2  C   LIG d   1       0.838  81.659 110.046  0.00  0.00     0.016 C 
ATOM      3  C   LIG d   1       1.706  80.778 109.361  0.00  0.00     0.038 C 
ATOM      4  C   LIG d   1       3.085  81.019 109.269  0.00  0.00     0.028 C 
ATOM      5  C   LIG d   1       3.447  82.499 109.326  0.00  0.00    -0.047 C 
ATOM      6  C   LIG d   1       2.769  83.135 110.561  0.00  0.00     0.091 C 
ENDROOT
BRANCH   1   7
ATOM      7  O   LIG d   1       0.702  83.092 111.876  0.00  0.00    -0.368 OA
BRANCH   7   8
ATOM      8  C   LIG d   1      -0.347  84.084 112.001  0.00  0.00     0.119 C 
BRANCH   8   9
ATOM      9  C   LIG d   1      -0.618  84.651 110.594  0.00  0.00     0.028 C 
ATOM     10  C   LIG d   1      -0.731  86.185 110.590  0.00  0.00     0.006 C 
ENDBRANCH   8   9
BRANCH   8  11
ATOM     11  C   LIG d   1       0.114  85.281 112.838  0.00  0.00     0.028 C 
ATOM     12  C   LIG d   1       1.138  84.894 113.917  0.00  0.00     0.006 C 
ENDBRANCH   8  11
ENDBRANCH   7   8
ENDBRANCH   1   7
BRANCH   6  13
ATOM     13  N   LIG d   1       3.003  84.600 110.645  0.00  0.00    -0.311 N 
ATOM     14  C   LIG d   1       3.703  85.176 111.620  0.00  0.00     0.210 C 
ATOM     15  C   LIG d   1       3.806  86.702 111.528  0.00  0.00     0.109 C 
ATOM     16  O   LIG d   1       4.277  84.565 112.535  0.00  0.00    -0.276 OA
ATOM     17  H   LIG d   1       2.599  85.168 109.926  0.00  0.00     0.149 HD
ENDBRANCH   6  13
BRANCH   5  18
ATOM     18  N   LIG d   1       4.919  82.597 109.360  0.00  0.00     0.381 N 
ATOM     19  H   LIG d   1       5.319  81.681 109.367  0.00  0.00    -0.090 HD
ATOM     20  H   LIG d   1       5.194  83.069 110.203  0.00  0.00    -0.090 HD
ATOM     21  H   LIG d   1       5.245  83.104 108.566  0.00  0.00    -0.090 HD
ENDBRANCH   5  18
BRANCH   3  22
ATOM     22  C   LIG d   1       1.189  79.661 108.723  0.00  0.00     0.382 C 
ATOM     23  O   LIG d   1      -0.052  79.533 108.591  0.00  0.00    -0.241 OA
ATOM     24  O   LIG d   1       1.945  78.758 108.319  0.00  0.00    -0.241 OA
ENDBRANCH   3  22
TORSDOF 7
ENDMDL
MODEL 8
REMARK VINA RESULT:      -5.7      2.040      3.926
REMARK  7 active torsions:
REMARK  status: ('A' for Active; 'I' for Inactive)
REMARK    1  A    between atoms: C_2  and  C_3 
REMARK    2  A    between atoms: C_3  and  O_6 
REMARK    3  A    between atoms: C_3  and  C_4 
REMARK    4  A    between atoms: C_7  and  O_6 
REMARK    5  A    between atoms: C_9  and  C_10 
REMARK    6  A    between atoms: N_15  and  C_14 
REMARK    7  A    between atoms: N_20  and  C_19 
REMARK       I    between atoms: C_22  and  N_20 
ROOT
ATOM      1  C   LIG d   1       1.466  82.723 111.369  0.00  0.00     0.161 C 
ATOM      2  C   LIG d   1       1.184  84.078 111.607  0.00  0.00     0.016 C 
ATOM      3  C   LIG d   1       0.999  85.027 110.575  0.00  0.00     0.038 C 
ATOM      4  C   LIG d   1       0.933  84.651 109.225  0.00  0.00     0.028 C 
ATOM      5  C   LIG d   1       1.713  83.379 108.912  0.00  0.00    -0.047 C 
ATOM      6  C   LIG d   1       1.287  82.272 109.904  0.00  0.00     0.091 C 
ENDROOT
BRANCH   1   7
ATOM      7  O   LIG d   1       0.674  81.898 112.247  0.00  0.00    -0.368 OA
BRANCH   7   8
ATOM      8  C   LIG d   1      -0.504  81.291 111.660  0.00  0.00     0.119 C 
BRANCH   8   9
ATOM      9  C   LIG d   1      -1.736  81.989 112.267  0.00  0.00     0.028 C 
ATOM     10  C   LIG d   1      -2.794  80.988 112.762  0.00  0.00     0.006 C 
ENDBRANCH   8   9
BRANCH   8  11
ATOM     11  C   LIG d   1      -0.632  79.819 112.064  0.00  0.00     0.028 C 
ATOM     12  C   LIG d   1      -0.598  78.865 110.859  0.00  0.00     0.006 C 
ENDBRANCH   8  11
ENDBRANCH   7   8
ENDBRANCH   1   7
BRANCH   6  13
ATOM     13  N   LIG d   1       2.063  81.018 109.721  0.00  0.00    -0.311 N 
ATOM     14  C   LIG d   1       3.386  80.948 109.860  0.00  0.00     0.210 C 
ATOM     15  C   LIG d   1       3.990  79.563 109.608  0.00  0.00     0.109 C 
ATOM     16  O   LIG d   1       4.113  81.893 110.200  0.00  0.00    -0.276 OA
ATOM     17  H   LIG d   1       1.549  80.195 109.475  0.00  0.00     0.149 HD
ENDBRANCH   6  13
BRANCH   5  18
ATOM     18  N   LIG d   1       1.445  83.028 107.504  0.00  0.00     0.381 N 
ATOM     19  H   LIG d   1       2.043  82.277 107.223  0.00  0.00    -0.090 HD
ATOM     20  H   LIG d   1       1.647  83.825 106.927  0.00  0.00    -0.090 HD
ATOM     21  H   LIG d   1       0.491  82.761 107.395  0.00  0.00    -0.090 HD
ENDBRANCH   5  18
BRANCH   3  22
ATOM     22  C   LIG d   1       0.917  86.375 110.888  0.00  0.00     0.382 C 
ATOM     23  O   LIG d   1       1.954  87.082 110.891  0.00  0.00    -0.241 OA
ATOM     24  O   LIG d   1      -0.173  86.884 111.212  0.00  0.00    -0.241 OA
ENDBRANCH   3  22
TORSDOF 7
ENDMDL
MODEL 9
REMARK VINA RESULT:      -5.4      2.538      4.270
REMARK  7 active torsions:
REMARK  status: ('A' for Active; 'I' for Inactive)
REMARK    1  A    between atoms: C_2  and  C_3 
REMARK    2  A    between atoms: C_3  and  O_6 
REMARK    3  A    between atoms: C_3  and  C_4 
REMARK    4  A    between atoms: C_7  and  O_6 
REMARK    5  A    between atoms: C_9  and  C_10 
REMARK    6  A    between atoms: N_15  and  C_14 
REMARK    7  A    between atoms: N_20  and  C_19 
REMARK       I    between atoms: C_22  and  N_20 
ROOT
ATOM      1  C   LIG d   1       1.355  82.381 111.526  0.00  0.00     0.161 C 
ATOM      2  C   LIG d   1       0.071  82.190 112.063  0.00  0.00     0.016 C 
ATOM      3  C   LIG d   1      -0.660  80.988 111.921  0.00  0.00     0.038 C 
ATOM      4  C   LIG d   1      -0.092  79.836 111.358  0.00  0.00     0.028 C 
ATOM      5  C   LIG d   1       1.016  80.136 110.354  0.00  0.00    -0.047 C 
ATOM      6  C   LIG d   1       2.036  81.099 111.005  0.00  0.00     0.091 C 
ENDROOT
BRANCH   1   7
ATOM      7  O   LIG d   1       2.196  83.037 112.495  0.00  0.00    -0.368 OA
BRANCH   7   8
ATOM      8  C   LIG d   1       2.089  84.481 112.560  0.00  0.00     0.119 C 
BRANCH   8   9
ATOM      9  C   LIG d   1       2.485  85.036 111.178  0.00  0.00     0.028 C 
ATOM     10  C   LIG d   1       4.009  85.096 110.984  0.00  0.00     0.006 C 
ENDBRANCH   8   9
BRANCH   8  11
ATOM     11  C   LIG d   1       3.106  85.072 113.541  0.00  0.00     0.028 C 
ATOM     12  C   LIG d   1       2.442  85.769 114.739  0.00  0.00     0.006 C 
ENDBRANCH   8  11
ENDBRANCH   7   8
ENDBRANCH   1   7
BRANCH   6  13
ATOM     13  N   LIG d   1       3.108  81.511 110.062  0.00  0.00    -0.311 N 
ATOM     14  C   LIG d   1       2.872  82.139 108.912  0.00  0.00     0.210 C 
ATOM     15  C   LIG d   1       4.118  82.455 108.079  0.00  0.00     0.109 C 
ATOM     16  O   LIG d   1       1.751  82.493 108.517  0.00  0.00    -0.276 OA
ATOM     17  H   LIG d   1       4.051  81.290 110.319  0.00  0.00     0.149 HD
ENDBRANCH   6  13
BRANCH   5  18
ATOM     18  N   LIG d   1       1.613  78.849 109.950  0.00  0.00     0.381 N 
ATOM     19  H   LIG d   1       2.257  78.540 110.650  0.00  0.00    -0.090 HD
ATOM     20  H   LIG d   1       2.119  78.980 109.092  0.00  0.00    -0.090 HD
ATOM     21  H   LIG d   1       0.898  78.167 109.821  0.00  0.00    -0.090 HD
ENDBRANCH   5  18
BRANCH   3  22
ATOM     22  C   LIG d   1      -1.991  80.943 112.310  0.00  0.00     0.382 C 
ATOM     23  O   LIG d   1      -2.580  81.996 112.652  0.00  0.00    -0.241 OA
ATOM     24  O   LIG d   1      -2.596  79.856 112.365  0.00  0.00    -0.241 OA
ENDBRANCH   3  22
TORSDOF 7
ENDMDL
