MODEL 1
REMARK VINA RESULT:      -4.7      0.000      0.000
REMARK  7 active torsions:
REMARK  status: ('A' for Active; 'I' for Inactive)
REMARK    1  A    between atoms: C_2  and  C_3 
REMARK    2  A    between atoms: C_3  and  O_6 
REMARK    3  A    between atoms: C_3  and  C_4 
REMARK    4  A    between atoms: C_7  and  O_6 
REMARK    5  A    between atoms: C_9  and  C_10 
REMARK    6  A    between atoms: N_15  and  C_14 
REMARK    7  A    between atoms: N_20  and  C_19 
REMARK       I    between atoms: C_22  and  N_20 
ROOT
ATOM      1  C   LIG d   1      -9.102  77.177 118.442  0.00  0.00     0.161 C 
ATOM      2  C   LIG d   1      -8.942  75.861 117.978  0.00  0.00     0.016 C 
ATOM      3  C   LIG d   1     -10.013  74.949 117.841  0.00  0.00     0.038 C 
ATOM      4  C   LIG d   1     -11.349  75.341 118.017  0.00  0.00     0.028 C 
ATOM      5  C   LIG d   1     -11.513  76.518 118.973  0.00  0.00    -0.047 C 
ATOM      6  C   LIG d   1     -10.566  77.657 118.533  0.00  0.00     0.091 C 
ENDROOT
BRANCH   1   7
ATOM      7  O   LIG d   1      -8.328  78.080 117.627  0.00  0.00    -0.368 OA
BRANCH   7   8
ATOM      8  C   LIG d   1      -7.029  78.455 118.149  0.00  0.00     0.119 C 
BRANCH   8   9
ATOM      9  C   LIG d   1      -6.884  79.979 117.977  0.00  0.00     0.028 C 
ATOM     10  C   LIG d   1      -6.935  80.728 119.320  0.00  0.00     0.006 C 
ENDBRANCH   8   9
BRANCH   8  11
ATOM     11  C   LIG d   1      -5.898  77.844 117.317  0.00  0.00     0.028 C 
ATOM     12  C   LIG d   1      -5.156  76.718 118.056  0.00  0.00     0.006 C 
ENDBRANCH   8  11
ENDBRANCH   7   8
ENDBRANCH   1   7
BRANCH   6  13
ATOM     13  N   LIG d   1     -10.602  78.815 119.464  0.00  0.00    -0.311 N 
ATOM     14  C   LIG d   1     -10.589  80.084 119.057  0.00  0.00     0.210 C 
ATOM     15  C   LIG d   1     -10.611  81.124 120.182  0.00  0.00     0.109 C 
ATOM     16  O   LIG d   1     -10.593  80.446 117.871  0.00  0.00    -0.276 OA
ATOM     17  H   LIG d   1     -10.631  78.612 120.444  0.00  0.00     0.149 HD
ENDBRANCH   6  13
BRANCH   5  18
ATOM     18  N   LIG d   1     -12.935  76.910 118.957  0.00  0.00     0.381 N 
ATOM     19  H   LIG d   1     -13.240  77.115 119.887  0.00  0.00    -0.090 HD
ATOM     20  H   LIG d   1     -13.480  76.141 118.609  0.00  0.00    -0.090 HD
ATOM     21  H   LIG d   1     -13.062  77.708 118.374  0.00  0.00    -0.090 HD
ENDBRANCH   5  18
BRANCH   3  22
ATOM     22  C   LIG d   1      -9.750  73.616 117.563  0.00  0.00     0.382 C 
ATOM     23  O   LIG d   1      -8.606  73.270 117.181  0.00  0.00    -0.241 OA
ATOM     24  O   LIG d   1     -10.653  72.763 117.646  0.00  0.00    -0.241 OA
ENDBRANCH   3  22
TORSDOF 7
ENDMDL
MODEL 2
REMARK VINA RESULT:      -4.6     12.472     14.723
REMARK  7 active torsions:
REMARK  status: ('A' for Active; 'I' for Inactive)
REMARK    1  A    between atoms: C_2  and  C_3 
REMARK    2  A    between atoms: C_3  and  O_6 
REMARK    3  A    between atoms: C_3  and  C_4 
REMARK    4  A    between atoms: C_7  and  O_6 
REMARK    5  A    between atoms: C_9  and  C_10 
REMARK    6  A    between atoms: N_15  and  C_14 
REMARK    7  A    between atoms: N_20  and  C_19 
REMARK       I    between atoms: C_22  and  N_20 
ROOT
ATOM      1  C   LIG d   1       3.044  69.224 122.283  0.00  0.00     0.161 C 
ATOM      2  C   LIG d   1       3.559  69.256 120.976  0.00  0.00     0.016 C 
ATOM      3  C   LIG d   1       2.948  68.600 119.883  0.00  0.00     0.038 C 
ATOM      4  C   LIG d   1       1.691  67.988 119.994  0.00  0.00     0.028 C 
ATOM      5  C   LIG d   1       1.378  67.497 121.403  0.00  0.00    -0.047 C 
ATOM      6  C   LIG d   1       1.615  68.654 122.401  0.00  0.00     0.091 C 
ENDROOT
BRANCH   1   7
ATOM      7  O   LIG d   1       3.109  70.540 122.867  0.00  0.00    -0.368 OA
BRANCH   7   8
ATOM      8  C   LIG d   1       2.599  71.624 122.052  0.00  0.00     0.119 C 
BRANCH   8   9
ATOM      9  C   LIG d   1       3.570  72.811 122.200  0.00  0.00     0.028 C 
ATOM     10  C   LIG d   1       4.622  72.852 121.078  0.00  0.00     0.006 C 
ENDBRANCH   8   9
BRANCH   8  11
ATOM     11  C   LIG d   1       1.254  72.132 122.580  0.00  0.00     0.028 C 
ATOM     12  C   LIG d   1       0.105  71.926 121.580  0.00  0.00     0.006 C 
ENDBRANCH   8  11
ENDBRANCH   7   8
ENDBRANCH   1   7
BRANCH   6  13
ATOM     13  N   LIG d   1       1.413  68.235 123.813  0.00  0.00    -0.311 N 
ATOM     14  C   LIG d   1       0.257  68.369 124.459  0.00  0.00     0.210 C 
ATOM     15  C   LIG d   1       0.270  67.892 125.915  0.00  0.00     0.109 C 
ATOM     16  O   LIG d   1      -0.788  68.809 123.956  0.00  0.00    -0.276 OA
ATOM     17  H   LIG d   1       2.201  67.839 124.288  0.00  0.00     0.149 HD
ENDBRANCH   6  13
BRANCH   5  18
ATOM     18  N   LIG d   1      -0.013  67.007 121.406  0.00  0.00     0.381 N 
ATOM     19  H   LIG d   1      -0.027  66.026 121.210  0.00  0.00    -0.090 HD
ATOM     20  H   LIG d   1      -0.526  67.481 120.684  0.00  0.00    -0.090 HD
ATOM     21  H   LIG d   1      -0.434  67.181 122.292  0.00  0.00    -0.090 HD
ENDBRANCH   5  18
BRANCH   3  22
ATOM     22  C   LIG d   1       3.616  68.518 118.670  0.00  0.00     0.382 C 
ATOM     23  O   LIG d   1       4.451  69.399 118.354  0.00  0.00    -0.241 OA
ATOM     24  O   LIG d   1       3.361  67.598 117.870  0.00  0.00    -0.241 OA
ENDBRANCH   3  22
TORSDOF 7
ENDMDL
MODEL 3
REMARK VINA RESULT:      -4.6      2.988      4.909
REMARK  7 active torsions:
REMARK  status: ('A' for Active; 'I' for Inactive)
REMARK    1  A    between atoms: C_2  and  C_3 
REMARK    2  A    between atoms: C_3  and  O_6 
REMARK    3  A    between atoms: C_3  and  C_4 
REMARK    4  A    between atoms: C_7  and  O_6 
REMARK    5  A    between atoms: C_9  and  C_10 
REMARK    6  A    between atoms: N_15  and  C_14 
REMARK    7  A    between atoms: N_20  and  C_19 
REMARK       I    between atoms: C_22  and  N_20 
ROOT
ATOM      1  C   LIG d   1     -11.218  77.404 119.613  0.00  0.00     0.161 C 
ATOM      2  C   LIG d   1     -12.101  76.797 120.522  0.00  0.00     0.016 C 
ATOM      3  C   LIG d   1     -12.624  77.457 121.657  0.00  0.00     0.038 C 
ATOM      4  C   LIG d   1     -12.417  78.826 121.880  0.00  0.00     0.028 C 
ATOM      5  C   LIG d   1     -11.124  79.351 121.265  0.00  0.00    -0.047 C 
ATOM      6  C   LIG d   1     -11.069  78.931 119.779  0.00  0.00     0.091 C 
ENDROOT
BRANCH   1   7
ATOM      7  O   LIG d   1     -11.608  77.083 118.263  0.00  0.00    -0.368 OA
BRANCH   7   8
ATOM      8  C   LIG d   1     -10.791  76.100 117.581  0.00  0.00     0.119 C 
BRANCH   8   9
ATOM      9  C   LIG d   1     -11.578  74.775 117.563  0.00  0.00     0.028 C 
ATOM     10  C   LIG d   1     -10.656  73.545 117.532  0.00  0.00     0.006 C 
ENDBRANCH   8   9
BRANCH   8  11
ATOM     11  C   LIG d   1      -9.510  75.799 118.365  0.00  0.00     0.028 C 
ATOM     12  C   LIG d   1      -8.249  76.349 117.679  0.00  0.00     0.006 C 
ENDBRANCH   8  11
ENDBRANCH   7   8
ENDBRANCH   1   7
BRANCH   6  13
ATOM     13  N   LIG d   1      -9.796  79.332 119.124  0.00  0.00    -0.311 N 
ATOM     14  C   LIG d   1      -9.658  80.452 118.416  0.00  0.00     0.210 C 
ATOM     15  C   LIG d   1      -8.267  80.665 117.809  0.00  0.00     0.109 C 
ATOM     16  O   LIG d   1     -10.544  81.305 118.260  0.00  0.00    -0.276 OA
ATOM     17  H   LIG d   1      -9.016  78.713 119.225  0.00  0.00     0.149 HD
ENDBRANCH   6  13
BRANCH   5  18
ATOM     18  N   LIG d   1     -11.103  80.814 121.454  0.00  0.00     0.381 N 
ATOM     19  H   LIG d   1     -10.801  81.032 122.383  0.00  0.00    -0.090 HD
ATOM     20  H   LIG d   1     -12.034  81.171 121.334  0.00  0.00    -0.090 HD
ATOM     21  H   LIG d   1     -10.490  81.235 120.791  0.00  0.00    -0.090 HD
ENDBRANCH   5  18
BRANCH   3  22
ATOM     22  C   LIG d   1     -13.332  76.735 122.606  0.00  0.00     0.382 C 
ATOM     23  O   LIG d   1     -12.934  76.703 123.795  0.00  0.00    -0.241 OA
ATOM     24  O   LIG d   1     -14.339  76.078 122.279  0.00  0.00    -0.241 OA
ENDBRANCH   3  22
TORSDOF 7
ENDMDL
MODEL 4
REMARK VINA RESULT:      -4.6      2.684      5.359
REMARK  7 active torsions:
REMARK  status: ('A' for Active; 'I' for Inactive)
REMARK    1  A    between atoms: C_2  and  C_3 
REMARK    2  A    between atoms: C_3  and  O_6 
REMARK    3  A    between atoms: C_3  and  C_4 
REMARK    4  A    between atoms: C_7  and  O_6 
REMARK    5  A    between atoms: C_9  and  C_10 
REMARK    6  A    between atoms: N_15  and  C_14 
REMARK    7  A    between atoms: N_20  and  C_19 
REMARK       I    between atoms: C_22  and  N_20 
ROOT
ATOM      1  C   LIG d   1     -11.237  77.753 119.350  0.00  0.00     0.161 C 
ATOM      2  C   LIG d   1     -10.218  78.228 118.508  0.00  0.00     0.016 C 
ATOM      3  C   LIG d   1      -9.310  79.245 118.882  0.00  0.00     0.038 C 
ATOM      4  C   LIG d   1      -9.265  79.755 120.189  0.00  0.00     0.028 C 
ATOM      5  C   LIG d   1     -10.601  79.666 120.920  0.00  0.00    -0.047 C 
ATOM      6  C   LIG d   1     -11.134  78.218 120.817  0.00  0.00     0.091 C 
ENDROOT
BRANCH   1   7
ATOM      7  O   LIG d   1     -11.295  76.314 119.283  0.00  0.00    -0.368 OA
BRANCH   7   8
ATOM      8  C   LIG d   1     -10.372  75.681 118.364  0.00  0.00     0.119 C 
BRANCH   8   9
ATOM      9  C   LIG d   1     -11.184  74.705 117.491  0.00  0.00     0.028 C 
ATOM     10  C   LIG d   1     -10.599  73.283 117.499  0.00  0.00     0.006 C 
ENDBRANCH   8   9
BRANCH   8  11
ATOM     11  C   LIG d   1      -9.355  74.809 119.107  0.00  0.00     0.028 C 
ATOM     12  C   LIG d   1      -9.346  75.066 120.622  0.00  0.00     0.006 C 
ENDBRANCH   8  11
ENDBRANCH   7   8
ENDBRANCH   1   7
BRANCH   6  13
ATOM     13  N   LIG d   1     -12.477  78.064 121.434  0.00  0.00    -0.311 N 
ATOM     14  C   LIG d   1     -12.775  77.107 122.311  0.00  0.00     0.210 C 
ATOM     15  C   LIG d   1     -14.224  77.115 122.809  0.00  0.00     0.109 C 
ATOM     16  O   LIG d   1     -11.969  76.271 122.747  0.00  0.00    -0.276 OA
ATOM     17  H   LIG d   1     -13.183  78.719 121.159  0.00  0.00     0.149 HD
ENDBRANCH   6  13
BRANCH   5  18
ATOM     18  N   LIG d   1     -10.377  80.103 122.311  0.00  0.00     0.381 N 
ATOM     19  H   LIG d   1     -10.965  80.885 122.518  0.00  0.00    -0.090 HD
ATOM     20  H   LIG d   1      -9.420  80.391 122.411  0.00  0.00    -0.090 HD
ATOM     21  H   LIG d   1     -10.574  79.355 122.939  0.00  0.00    -0.090 HD
ENDBRANCH   5  18
BRANCH   3  22
ATOM     22  C   LIG d   1      -8.460  79.792 117.933  0.00  0.00     0.382 C 
ATOM     23  O   LIG d   1      -8.650  80.962 117.521  0.00  0.00    -0.241 OA
ATOM     24  O   LIG d   1      -7.533  79.114 117.450  0.00  0.00    -0.241 OA
ENDBRANCH   3  22
TORSDOF 7
ENDMDL
MODEL 5
REMARK VINA RESULT:      -4.6      2.388      4.293
REMARK  7 active torsions:
REMARK  status: ('A' for Active; 'I' for Inactive)
REMARK    1  A    between atoms: C_2  and  C_3 
REMARK    2  A    between atoms: C_3  and  O_6 
REMARK    3  A    between atoms: C_3  and  C_4 
REMARK    4  A    between atoms: C_7  and  O_6 
REMARK    5  A    between atoms: C_9  and  C_10 
REMARK    6  A    between atoms: N_15  and  C_14 
REMARK    7  A    between atoms: N_20  and  C_19 
REMARK       I    between atoms: C_22  and  N_20 
ROOT
ATOM      1  C   LIG d   1      -9.592  78.586 118.443  0.00  0.00     0.161 C 
ATOM      2  C   LIG d   1     -10.834  77.968 118.668  0.00  0.00     0.016 C 
ATOM      3  C   LIG d   1     -11.065  76.588 118.465  0.00  0.00     0.038 C 
ATOM      4  C   LIG d   1     -10.023  75.699 118.164  0.00  0.00     0.028 C 
ATOM      5  C   LIG d   1      -8.856  76.356 117.434  0.00  0.00    -0.047 C 
ATOM      6  C   LIG d   1      -8.416  77.612 118.221  0.00  0.00     0.091 C 
ENDROOT
BRANCH   1   7
ATOM      7  O   LIG d   1      -9.295  79.494 119.522  0.00  0.00    -0.368 OA
BRANCH   7   8
ATOM      8  C   LIG d   1      -9.792  80.846 119.373  0.00  0.00     0.119 C 
BRANCH   8   9
ATOM      9  C   LIG d   1      -9.398  81.331 117.964  0.00  0.00     0.028 C 
ATOM     10  C   LIG d   1      -7.978  81.920 117.922  0.00  0.00     0.006 C 
ENDBRANCH   8   9
BRANCH   8  11
ATOM     11  C   LIG d   1      -9.095  81.806 120.342  0.00  0.00     0.028 C 
ATOM     12  C   LIG d   1     -10.085  82.681 121.129  0.00  0.00     0.006 C 
ENDBRANCH   8  11
ENDBRANCH   7   8
ENDBRANCH   1   7
BRANCH   6  13
ATOM     13  N   LIG d   1      -7.334  78.363 117.532  0.00  0.00    -0.311 N 
ATOM     14  C   LIG d   1      -6.164  78.649 118.101  0.00  0.00     0.210 C 
ATOM     15  C   LIG d   1      -5.197  79.449 117.222  0.00  0.00     0.109 C 
ATOM     16  O   LIG d   1      -5.823  78.289 119.237  0.00  0.00    -0.276 OA
ATOM     17  H   LIG d   1      -7.515  78.666 116.595  0.00  0.00     0.149 HD
ENDBRANCH   6  13
BRANCH   5  18
ATOM     18  N   LIG d   1      -7.786  75.350 117.307  0.00  0.00     0.381 N 
ATOM     19  H   LIG d   1      -7.800  74.738 118.098  0.00  0.00    -0.090 HD
ATOM     20  H   LIG d   1      -6.898  75.820 117.287  0.00  0.00    -0.090 HD
ATOM     21  H   LIG d   1      -7.910  74.824 116.469  0.00  0.00    -0.090 HD
ENDBRANCH   5  18
BRANCH   3  22
ATOM     22  C   LIG d   1     -12.358  76.092 118.522  0.00  0.00     0.382 C 
ATOM     23  O   LIG d   1     -13.184  76.588 119.327  0.00  0.00    -0.241 OA
ATOM     24  O   LIG d   1     -12.697  75.127 117.812  0.00  0.00    -0.241 OA
ENDBRANCH   3  22
TORSDOF 7
ENDMDL
MODEL 6
REMARK VINA RESULT:      -4.6     11.913     14.567
REMARK  7 active torsions:
REMARK  status: ('A' for Active; 'I' for Inactive)
REMARK    1  A    between atoms: C_2  and  C_3 
REMARK    2  A    between atoms: C_3  and  O_6 
REMARK    3  A    between atoms: C_3  and  C_4 
REMARK    4  A    between atoms: C_7  and  O_6 
REMARK    5  A    between atoms: C_9  and  C_10 
REMARK    6  A    between atoms: N_15  and  C_14 
REMARK    7  A    between atoms: N_20  and  C_19 
REMARK       I    between atoms: C_22  and  N_20 
ROOT
ATOM      1  C   LIG d   1       1.537  69.375 121.537  0.00  0.00     0.161 C 
ATOM      2  C   LIG d   1       2.047  69.296 120.231  0.00  0.00     0.016 C 
ATOM      3  C   LIG d   1       2.871  68.239 119.779  0.00  0.00     0.038 C 
ATOM      4  C   LIG d   1       3.117  67.104 120.565  0.00  0.00     0.028 C 
ATOM      5  C   LIG d   1       3.039  67.376 122.064  0.00  0.00    -0.047 C 
ATOM      6  C   LIG d   1       1.704  68.090 122.375  0.00  0.00     0.091 C 
ENDROOT
BRANCH   1   7
ATOM      7  O   LIG d   1       0.152  69.771 121.498  0.00  0.00    -0.368 OA
BRANCH   7   8
ATOM      8  C   LIG d   1      -0.107  71.194 121.581  0.00  0.00     0.119 C 
BRANCH   8   9
ATOM      9  C   LIG d   1      -0.935  71.441 122.856  0.00  0.00     0.028 C 
ATOM     10  C   LIG d   1      -0.076  71.957 124.023  0.00  0.00     0.006 C 
ENDBRANCH   8   9
BRANCH   8  11
ATOM     11  C   LIG d   1      -0.992  71.668 120.424  0.00  0.00     0.028 C 
ATOM     12  C   LIG d   1      -2.254  72.403 120.903  0.00  0.00     0.006 C 
ENDBRANCH   8  11
ENDBRANCH   7   8
ENDBRANCH   1   7
BRANCH   6  13
ATOM     13  N   LIG d   1       1.584  68.468 123.807  0.00  0.00    -0.311 N 
ATOM     14  C   LIG d   1       0.477  68.283 124.524  0.00  0.00     0.210 C 
ATOM     15  C   LIG d   1       0.560  68.762 125.977  0.00  0.00     0.109 C 
ATOM     16  O   LIG d   1      -0.555  67.737 124.104  0.00  0.00    -0.276 OA
ATOM     17  H   LIG d   1       2.385  68.889 124.237  0.00  0.00     0.149 HD
ENDBRANCH   6  13
BRANCH   5  18
ATOM     18  N   LIG d   1       3.179  66.083 122.759  0.00  0.00     0.381 N 
ATOM     19  H   LIG d   1       3.165  66.227 123.749  0.00  0.00    -0.090 HD
ATOM     20  H   LIG d   1       4.063  65.675 122.513  0.00  0.00    -0.090 HD
ATOM     21  H   LIG d   1       2.438  65.471 122.495  0.00  0.00    -0.090 HD
ENDBRANCH   5  18
BRANCH   3  22
ATOM     22  C   LIG d   1       3.490  68.331 118.542  0.00  0.00     0.382 C 
ATOM     23  O   LIG d   1       4.334  69.234 118.329  0.00  0.00    -0.241 OA
ATOM     24  O   LIG d   1       3.182  67.549 117.622  0.00  0.00    -0.241 OA
ENDBRANCH   3  22
TORSDOF 7
ENDMDL
MODEL 7
REMARK VINA RESULT:      -4.5     18.196     20.024
REMARK  7 active torsions:
REMARK  status: ('A' for Active; 'I' for Inactive)
REMARK    1  A    between atoms: C_2  and  C_3 
REMARK    2  A    between atoms: C_3  and  O_6 
REMARK    3  A    between atoms: C_3  and  C_4 
REMARK    4  A    between atoms: C_7  and  O_6 
REMARK    5  A    between atoms: C_9  and  C_10 
REMARK    6  A    between atoms: N_15  and  C_14 
REMARK    7  A    between atoms: N_20  and  C_19 
REMARK       I    between atoms: C_22  and  N_20 
ROOT
ATOM      1  C   LIG d   1      -1.106  60.131 122.046  0.00  0.00     0.161 C 
ATOM      2  C   LIG d   1       0.080  59.774 121.383  0.00  0.00     0.016 C 
ATOM      3  C   LIG d   1       0.106  59.023 120.185  0.00  0.00     0.038 C 
ATOM      4  C   LIG d   1      -1.066  58.707 119.483  0.00  0.00     0.028 C 
ATOM      5  C   LIG d   1      -2.299  58.610 120.375  0.00  0.00    -0.047 C 
ATOM      6  C   LIG d   1      -2.397  59.889 121.236  0.00  0.00     0.091 C 
ENDROOT
BRANCH   1   7
ATOM      7  O   LIG d   1      -1.032  61.505 122.473  0.00  0.00    -0.368 OA
BRANCH   7   8
ATOM      8  C   LIG d   1      -0.867  61.722 123.896  0.00  0.00     0.119 C 
BRANCH   8   9
ATOM      9  C   LIG d   1       0.569  62.235 124.122  0.00  0.00     0.028 C 
ATOM     10  C   LIG d   1       0.765  63.673 123.613  0.00  0.00     0.006 C 
ENDBRANCH   8   9
BRANCH   8  11
ATOM     11  C   LIG d   1      -0.954  60.406 124.674  0.00  0.00     0.028 C 
ATOM     12  C   LIG d   1      -1.974  60.460 125.823  0.00  0.00     0.006 C 
ENDBRANCH   8  11
ENDBRANCH   7   8
ENDBRANCH   1   7
BRANCH   6  13
ATOM     13  N   LIG d   1      -3.529  59.840 122.198  0.00  0.00    -0.311 N 
ATOM     14  C   LIG d   1      -3.764  58.803 123.000  0.00  0.00     0.210 C 
ATOM     15  C   LIG d   1      -4.995  58.948 123.900  0.00  0.00     0.109 C 
ATOM     16  O   LIG d   1      -3.052  57.790 123.074  0.00  0.00    -0.276 OA
ATOM     17  H   LIG d   1      -4.139  60.633 122.226  0.00  0.00     0.149 HD
ENDBRANCH   6  13
BRANCH   5  18
ATOM     18  N   LIG d   1      -3.469  58.411 119.498  0.00  0.00     0.381 N 
ATOM     19  H   LIG d   1      -3.693  57.438 119.448  0.00  0.00    -0.090 HD
ATOM     20  H   LIG d   1      -3.240  58.730 118.573  0.00  0.00    -0.090 HD
ATOM     21  H   LIG d   1      -4.249  58.921 119.850  0.00  0.00    -0.090 HD
ENDBRANCH   5  18
BRANCH   3  22
ATOM     22  C   LIG d   1       1.314  58.548 119.698  0.00  0.00     0.382 C 
ATOM     23  O   LIG d   1       2.265  58.329 120.487  0.00  0.00    -0.241 OA
ATOM     24  O   LIG d   1       1.480  58.377 118.476  0.00  0.00    -0.241 OA
ENDBRANCH   3  22
TORSDOF 7
ENDMDL
MODEL 8
REMARK VINA RESULT:      -4.4     10.767     12.845
REMARK  7 active torsions:
REMARK  status: ('A' for Active; 'I' for Inactive)
REMARK    1  A    between atoms: C_2  and  C_3 
REMARK    2  A    between atoms: C_3  and  O_6 
REMARK    3  A    between atoms: C_3  and  C_4 
REMARK    4  A    between atoms: C_7  and  O_6 
REMARK    5  A    between atoms: C_9  and  C_10 
REMARK    6  A    between atoms: N_15  and  C_14 
REMARK    7  A    between atoms: N_20  and  C_19 
REMARK       I    between atoms: C_22  and  N_20 
ROOT
ATOM      1  C   LIG d   1     -13.239  66.327 122.639  0.00  0.00     0.161 C 
ATOM      2  C   LIG d   1     -12.289  65.737 123.489  0.00  0.00     0.016 C 
ATOM      3  C   LIG d   1     -11.686  64.484 123.232  0.00  0.00     0.038 C 
ATOM      4  C   LIG d   1     -11.883  63.801 122.023  0.00  0.00     0.028 C 
ATOM      5  C   LIG d   1     -13.220  64.114 121.361  0.00  0.00    -0.047 C 
ATOM      6  C   LIG d   1     -13.383  65.648 121.261  0.00  0.00     0.091 C 
ENDROOT
BRANCH   1   7
ATOM      7  O   LIG d   1     -12.949  67.729 122.479  0.00  0.00    -0.368 OA
BRANCH   7   8
ATOM      8  C   LIG d   1     -13.604  68.626 123.410  0.00  0.00     0.119 C 
BRANCH   8   9
ATOM      9  C   LIG d   1     -14.560  69.519 122.596  0.00  0.00     0.028 C 
ATOM     10  C   LIG d   1     -14.842  70.862 123.290  0.00  0.00     0.006 C 
ENDBRANCH   8   9
BRANCH   8  11
ATOM     11  C   LIG d   1     -12.602  69.587 124.056  0.00  0.00     0.028 C 
ATOM     12  C   LIG d   1     -11.895  68.979 125.277  0.00  0.00     0.006 C 
ENDBRANCH   8  11
ENDBRANCH   7   8
ENDBRANCH   1   7
BRANCH   6  13
ATOM     13  N   LIG d   1     -14.702  66.042 120.701  0.00  0.00    -0.311 N 
ATOM     14  C   LIG d   1     -14.844  66.903 119.695  0.00  0.00     0.210 C 
ATOM     15  C   LIG d   1     -16.293  67.186 119.285  0.00  0.00     0.109 C 
ATOM     16  O   LIG d   1     -13.906  67.435 119.082  0.00  0.00    -0.276 OA
ATOM     17  H   LIG d   1     -15.516  65.634 121.119  0.00  0.00     0.149 HD
ENDBRANCH   6  13
BRANCH   5  18
ATOM     18  N   LIG d   1     -13.234  63.444 120.046  0.00  0.00     0.381 N 
ATOM     19  H   LIG d   1     -13.065  64.114 119.323  0.00  0.00    -0.090 HD
ATOM     20  H   LIG d   1     -14.143  63.042 119.897  0.00  0.00    -0.090 HD
ATOM     21  H   LIG d   1     -12.539  62.732 120.019  0.00  0.00    -0.090 HD
ENDBRANCH   5  18
BRANCH   3  22
ATOM     22  C   LIG d   1     -10.907  63.883 124.209  0.00  0.00     0.382 C 
ATOM     23  O   LIG d   1      -9.655  63.922 124.124  0.00  0.00    -0.241 OA
ATOM     24  O   LIG d   1     -11.439  63.265 125.150  0.00  0.00    -0.241 OA
ENDBRANCH   3  22
TORSDOF 7
ENDMDL
MODEL 9
REMARK VINA RESULT:      -4.3      3.266      7.142
REMARK  7 active torsions:
REMARK  status: ('A' for Active; 'I' for Inactive)
REMARK    1  A    between atoms: C_2  and  C_3 
REMARK    2  A    between atoms: C_3  and  O_6 
REMARK    3  A    between atoms: C_3  and  C_4 
REMARK    4  A    between atoms: C_7  and  O_6 
REMARK    5  A    between atoms: C_9  and  C_10 
REMARK    6  A    between atoms: N_15  and  C_14 
REMARK    7  A    between atoms: N_20  and  C_19 
REMARK       I    between atoms: C_22  and  N_20 
ROOT
ATOM      1  C   LIG d   1      -9.904  82.833 119.064  0.00  0.00     0.161 C 
ATOM      2  C   LIG d   1      -9.944  84.115 119.636  0.00  0.00     0.016 C 
ATOM      3  C   LIG d   1     -10.306  84.355 120.982  0.00  0.00     0.038 C 
ATOM      4  C   LIG d   1     -10.508  83.308 121.893  0.00  0.00     0.028 C 
ATOM      5  C   LIG d   1     -10.971  82.013 121.236  0.00  0.00    -0.047 C 
ATOM      6  C   LIG d   1     -10.013  81.670 120.072  0.00  0.00     0.091 C 
ENDROOT
BRANCH   1   7
ATOM      7  O   LIG d   1      -8.713  82.692 118.264  0.00  0.00    -0.368 OA
BRANCH   7   8
ATOM      8  C   LIG d   1      -7.624  81.950 118.866  0.00  0.00     0.119 C 
BRANCH   8   9
ATOM      9  C   LIG d   1      -6.657  82.973 119.491  0.00  0.00     0.028 C 
ATOM     10  C   LIG d   1      -6.628  82.892 121.027  0.00  0.00     0.006 C 
ENDBRANCH   8   9
BRANCH   8  11
ATOM     11  C   LIG d   1      -6.802  81.208 117.808  0.00  0.00     0.028 C 
ATOM     12  C   LIG d   1      -6.858  79.681 117.973  0.00  0.00     0.006 C 
ENDBRANCH   8  11
ENDBRANCH   7   8
ENDBRANCH   1   7
BRANCH   6  13
ATOM     13  N   LIG d   1     -10.443  80.462 119.321  0.00  0.00    -0.311 N 
ATOM     14  C   LIG d   1     -10.030  79.230 119.616  0.00  0.00     0.210 C 
ATOM     15  C   LIG d   1     -10.578  78.129 118.703  0.00  0.00     0.109 C 
ATOM     16  O   LIG d   1      -9.288  78.941 120.566  0.00  0.00    -0.276 OA
ATOM     17  H   LIG d   1     -11.070  80.601 118.553  0.00  0.00     0.149 HD
ENDBRANCH   6  13
BRANCH   5  18
ATOM     18  N   LIG d   1     -11.009  80.971 122.279  0.00  0.00     0.381 N 
ATOM     19  H   LIG d   1     -11.839  81.073 122.830  0.00  0.00    -0.090 HD
ATOM     20  H   LIG d   1     -10.214  81.087 122.883  0.00  0.00    -0.090 HD
ATOM     21  H   LIG d   1     -10.989  80.068 121.861  0.00  0.00    -0.090 HD
ENDBRANCH   5  18
BRANCH   3  22
ATOM     22  C   LIG d   1     -10.508  85.656 121.417  0.00  0.00     0.382 C 
ATOM     23  O   LIG d   1      -9.552  86.467 121.434  0.00  0.00    -0.241 OA
ATOM     24  O   LIG d   1     -11.625  86.015 121.836  0.00  0.00    -0.241 OA
ENDBRANCH   3  22
TORSDOF 7
ENDMDL
