MODEL 1
REMARK VINA RESULT:      -6.0      0.000      0.000
REMARK  7 active torsions:
REMARK  status: ('A' for Active; 'I' for Inactive)
REMARK    1  A    between atoms: C_2  and  C_3 
REMARK    2  A    between atoms: C_3  and  O_6 
REMARK    3  A    between atoms: C_3  and  C_4 
REMARK    4  A    between atoms: C_7  and  O_6 
REMARK    5  A    between atoms: C_9  and  C_10 
REMARK    6  A    between atoms: N_15  and  C_14 
REMARK    7  A    between atoms: N_20  and  C_19 
REMARK       I    between atoms: C_22  and  N_20 
ROOT
ATOM      1  C   LIG d   1      -8.088  75.256 117.556  0.00  0.00     0.161 C 
ATOM      2  C   LIG d   1      -9.210  75.921 118.079  0.00  0.00     0.016 C 
ATOM      3  C   LIG d   1      -9.275  77.323 118.248  0.00  0.00     0.038 C 
ATOM      4  C   LIG d   1      -8.273  78.176 117.761  0.00  0.00     0.028 C 
ATOM      5  C   LIG d   1      -6.901  77.515 117.682  0.00  0.00    -0.047 C 
ATOM      6  C   LIG d   1      -7.030  76.179 116.916  0.00  0.00     0.091 C 
ENDROOT
BRANCH   1   7
ATOM      7  O   LIG d   1      -8.512  74.251 116.614  0.00  0.00    -0.368 OA
BRANCH   7   8
ATOM      8  C   LIG d   1      -8.573  72.893 117.116  0.00  0.00     0.119 C 
BRANCH   8   9
ATOM      9  C   LIG d   1      -7.163  72.286 116.983  0.00  0.00     0.028 C 
ATOM     10  C   LIG d   1      -6.700  72.192 115.519  0.00  0.00     0.006 C 
ENDBRANCH   8   9
BRANCH   8  11
ATOM     11  C   LIG d   1      -9.475  72.016 116.242  0.00  0.00     0.028 C 
ATOM     12  C   LIG d   1      -9.709  70.620 116.840  0.00  0.00     0.006 C 
ENDBRANCH   8  11
ENDBRANCH   7   8
ENDBRANCH   1   7
BRANCH   6  13
ATOM     13  N   LIG d   1      -5.749  75.428 116.867  0.00  0.00    -0.311 N 
ATOM     14  C   LIG d   1      -4.882  75.522 115.860  0.00  0.00     0.210 C 
ATOM     15  C   LIG d   1      -3.632  74.646 115.999  0.00  0.00     0.109 C 
ATOM     16  O   LIG d   1      -5.014  76.271 114.881  0.00  0.00    -0.276 OA
ATOM     17  H   LIG d   1      -5.547  74.819 117.636  0.00  0.00     0.149 HD
ENDBRANCH   6  13
BRANCH   5  18
ATOM     18  N   LIG d   1      -5.984  78.469 117.031  0.00  0.00     0.381 N 
ATOM     19  H   LIG d   1      -5.082  78.421 117.462  0.00  0.00    -0.090 HD
ATOM     20  H   LIG d   1      -6.342  79.400 117.153  0.00  0.00    -0.090 HD
ATOM     21  H   LIG d   1      -5.907  78.260 116.060  0.00  0.00    -0.090 HD
ENDBRANCH   5  18
BRANCH   3  22
ATOM     22  C   LIG d   1     -10.334  77.883 118.946  0.00  0.00     0.382 C 
ATOM     23  O   LIG d   1     -10.148  78.898 119.659  0.00  0.00    -0.241 OA
ATOM     24  O   LIG d   1     -11.463  77.359 118.908  0.00  0.00    -0.241 OA
ENDBRANCH   3  22
TORSDOF 7
ENDMDL
MODEL 2
REMARK VINA RESULT:      -5.6     13.631     15.912
REMARK  7 active torsions:
REMARK  status: ('A' for Active; 'I' for Inactive)
REMARK    1  A    between atoms: C_2  and  C_3 
REMARK    2  A    between atoms: C_3  and  O_6 
REMARK    3  A    between atoms: C_3  and  C_4 
REMARK    4  A    between atoms: C_7  and  O_6 
REMARK    5  A    between atoms: C_9  and  C_10 
REMARK    6  A    between atoms: N_15  and  C_14 
REMARK    7  A    between atoms: N_20  and  C_19 
REMARK       I    between atoms: C_22  and  N_20 
ROOT
ATOM      1  C   LIG d   1       3.915  85.438 112.287  0.00  0.00     0.161 C 
ATOM      2  C   LIG d   1       3.799  86.747 112.781  0.00  0.00     0.016 C 
ATOM      3  C   LIG d   1       2.842  87.675 112.309  0.00  0.00     0.038 C 
ATOM      4  C   LIG d   1       1.832  87.305 111.409  0.00  0.00     0.028 C 
ATOM      5  C   LIG d   1       2.221  86.139 110.507  0.00  0.00    -0.047 C 
ATOM      6  C   LIG d   1       2.750  84.981 111.384  0.00  0.00     0.091 C 
ENDROOT
BRANCH   1   7
ATOM      7  O   LIG d   1       4.092  84.516 113.381  0.00  0.00    -0.368 OA
BRANCH   7   8
ATOM      8  C   LIG d   1       3.386  84.837 114.605  0.00  0.00     0.119 C 
BRANCH   8   9
ATOM      9  C   LIG d   1       4.398  84.736 115.763  0.00  0.00     0.028 C 
ATOM     10  C   LIG d   1       4.613  86.083 116.474  0.00  0.00     0.006 C 
ENDBRANCH   8   9
BRANCH   8  11
ATOM     11  C   LIG d   1       2.308  83.795 114.916  0.00  0.00     0.028 C 
ATOM     12  C   LIG d   1       2.710  82.844 116.055  0.00  0.00     0.006 C 
ENDBRANCH   8  11
ENDBRANCH   7   8
ENDBRANCH   1   7
BRANCH   6  13
ATOM     13  N   LIG d   1       3.232  83.831 110.575  0.00  0.00    -0.311 N 
ATOM     14  C   LIG d   1       2.895  82.567 110.825  0.00  0.00     0.210 C 
ATOM     15  C   LIG d   1       3.518  81.534 109.881  0.00  0.00     0.109 C 
ATOM     16  O   LIG d   1       2.114  82.206 111.718  0.00  0.00    -0.276 OA
ATOM     17  H   LIG d   1       3.845  84.037 109.811  0.00  0.00     0.149 HD
ENDBRANCH   6  13
BRANCH   5  18
ATOM     18  N   LIG d   1       1.031  85.769 109.718  0.00  0.00     0.381 N 
ATOM     19  H   LIG d   1       0.208  85.876 110.276  0.00  0.00    -0.090 HD
ATOM     20  H   LIG d   1       1.107  84.804 109.448  0.00  0.00    -0.090 HD
ATOM     21  H   LIG d   1       0.968  86.344 108.906  0.00  0.00    -0.090 HD
ENDBRANCH   5  18
BRANCH   3  22
ATOM     22  C   LIG d   1       2.916  89.001 112.707  0.00  0.00     0.382 C 
ATOM     23  O   LIG d   1       1.872  89.618 113.029  0.00  0.00    -0.241 OA
ATOM     24  O   LIG d   1       4.007  89.602 112.707  0.00  0.00    -0.241 OA
ENDBRANCH   3  22
TORSDOF 7
ENDMDL
MODEL 3
REMARK VINA RESULT:      -5.6      2.268      4.947
REMARK  7 active torsions:
REMARK  status: ('A' for Active; 'I' for Inactive)
REMARK    1  A    between atoms: C_2  and  C_3 
REMARK    2  A    between atoms: C_3  and  O_6 
REMARK    3  A    between atoms: C_3  and  C_4 
REMARK    4  A    between atoms: C_7  and  O_6 
REMARK    5  A    between atoms: C_9  and  C_10 
REMARK    6  A    between atoms: N_15  and  C_14 
REMARK    7  A    between atoms: N_20  and  C_19 
REMARK       I    between atoms: C_22  and  N_20 
ROOT
ATOM      1  C   LIG d   1      -6.423  74.786 117.774  0.00  0.00     0.161 C 
ATOM      2  C   LIG d   1      -6.808  73.544 117.241  0.00  0.00     0.016 C 
ATOM      3  C   LIG d   1      -8.141  73.225 116.897  0.00  0.00     0.038 C 
ATOM      4  C   LIG d   1      -9.164  74.185 116.922  0.00  0.00     0.028 C 
ATOM      5  C   LIG d   1      -8.921  75.303 117.930  0.00  0.00    -0.047 C 
ATOM      6  C   LIG d   1      -7.506  75.883 117.704  0.00  0.00     0.091 C 
ENDROOT
BRANCH   1   7
ATOM      7  O   LIG d   1      -5.211  75.237 117.137  0.00  0.00    -0.368 OA
BRANCH   7   8
ATOM      8  C   LIG d   1      -4.700  74.396 116.074  0.00  0.00     0.119 C 
BRANCH   8   9
ATOM      9  C   LIG d   1      -3.226  74.083 116.399  0.00  0.00     0.028 C 
ATOM     10  C   LIG d   1      -2.519  75.253 117.102  0.00  0.00     0.006 C 
ENDBRANCH   8   9
BRANCH   8  11
ATOM     11  C   LIG d   1      -4.669  75.145 114.738  0.00  0.00     0.028 C 
ATOM     12  C   LIG d   1      -6.073  75.482 114.211  0.00  0.00     0.006 C 
ENDBRANCH   8  11
ENDBRANCH   7   8
ENDBRANCH   1   7
BRANCH   6  13
ATOM     13  N   LIG d   1      -7.155  76.926 118.703  0.00  0.00    -0.311 N 
ATOM     14  C   LIG d   1      -6.893  78.191 118.381  0.00  0.00     0.210 C 
ATOM     15  C   LIG d   1      -6.533  79.098 119.562  0.00  0.00     0.109 C 
ATOM     16  O   LIG d   1      -6.956  78.656 117.233  0.00  0.00    -0.276 OA
ATOM     17  H   LIG d   1      -7.111  76.642 119.662  0.00  0.00     0.149 HD
ENDBRANCH   6  13
BRANCH   5  18
ATOM     18  N   LIG d   1      -9.991  76.303 117.753  0.00  0.00     0.381 N 
ATOM     19  H   LIG d   1     -10.277  76.654 118.645  0.00  0.00    -0.090 HD
ATOM     20  H   LIG d   1     -10.782  75.859 117.320  0.00  0.00    -0.090 HD
ATOM     21  H   LIG d   1      -9.667  77.052 117.182  0.00  0.00    -0.090 HD
ENDBRANCH   5  18
BRANCH   3  22
ATOM     22  C   LIG d   1      -8.471  71.921 116.560  0.00  0.00     0.382 C 
ATOM     23  O   LIG d   1      -7.786  71.300 115.711  0.00  0.00    -0.241 OA
ATOM     24  O   LIG d   1      -9.470  71.372 117.062  0.00  0.00    -0.241 OA
ENDBRANCH   3  22
TORSDOF 7
ENDMDL
MODEL 4
REMARK VINA RESULT:      -5.5      1.507      1.924
REMARK  7 active torsions:
REMARK  status: ('A' for Active; 'I' for Inactive)
REMARK    1  A    between atoms: C_2  and  C_3 
REMARK    2  A    between atoms: C_3  and  O_6 
REMARK    3  A    between atoms: C_3  and  C_4 
REMARK    4  A    between atoms: C_7  and  O_6 
REMARK    5  A    between atoms: C_9  and  C_10 
REMARK    6  A    between atoms: N_15  and  C_14 
REMARK    7  A    between atoms: N_20  and  C_19 
REMARK       I    between atoms: C_22  and  N_20 
ROOT
ATOM      1  C   LIG d   1      -7.251  76.674 117.413  0.00  0.00     0.161 C 
ATOM      2  C   LIG d   1      -8.527  77.148 117.760  0.00  0.00     0.016 C 
ATOM      3  C   LIG d   1      -8.815  78.513 117.986  0.00  0.00     0.038 C 
ATOM      4  C   LIG d   1      -7.874  79.522 117.730  0.00  0.00     0.028 C 
ATOM      5  C   LIG d   1      -6.430  79.051 117.866  0.00  0.00    -0.047 C 
ATOM      6  C   LIG d   1      -6.238  77.771 117.022  0.00  0.00     0.091 C 
ENDROOT
BRANCH   1   7
ATOM      7  O   LIG d   1      -7.362  75.696 116.360  0.00  0.00    -0.368 OA
BRANCH   7   8
ATOM      8  C   LIG d   1      -7.339  74.308 116.775  0.00  0.00     0.119 C 
BRANCH   8   9
ATOM      9  C   LIG d   1      -6.646  73.503 115.659  0.00  0.00     0.028 C 
ATOM     10  C   LIG d   1      -5.628  74.346 114.872  0.00  0.00     0.006 C 
ENDBRANCH   8   9
BRANCH   8  11
ATOM     11  C   LIG d   1      -8.755  73.732 116.871  0.00  0.00     0.028 C 
ATOM     12  C   LIG d   1      -8.821  72.245 116.486  0.00  0.00     0.006 C 
ENDBRANCH   8  11
ENDBRANCH   7   8
ENDBRANCH   1   7
BRANCH   6  13
ATOM     13  N   LIG d   1      -4.875  77.196 117.165  0.00  0.00    -0.311 N 
ATOM     14  C   LIG d   1      -3.877  77.456 116.322  0.00  0.00     0.210 C 
ATOM     15  C   LIG d   1      -2.559  76.745 116.641  0.00  0.00     0.109 C 
ATOM     16  O   LIG d   1      -3.950  78.234 115.358  0.00  0.00    -0.276 OA
ATOM     17  H   LIG d   1      -4.719  76.579 117.938  0.00  0.00     0.149 HD
ENDBRANCH   6  13
BRANCH   5  18
ATOM     18  N   LIG d   1      -5.557  80.161 117.439  0.00  0.00     0.381 N 
ATOM     19  H   LIG d   1      -4.936  80.409 118.183  0.00  0.00    -0.090 HD
ATOM     20  H   LIG d   1      -6.128  80.960 117.226  0.00  0.00    -0.090 HD
ATOM     21  H   LIG d   1      -5.034  79.894 116.635  0.00  0.00    -0.090 HD
ENDBRANCH   5  18
BRANCH   3  22
ATOM     22  C   LIG d   1     -10.046  78.879 118.511  0.00  0.00     0.382 C 
ATOM     23  O   LIG d   1     -10.911  78.002 118.748  0.00  0.00    -0.241 OA
ATOM     24  O   LIG d   1     -10.317  80.078 118.708  0.00  0.00    -0.241 OA
ENDBRANCH   3  22
TORSDOF 7
ENDMDL
MODEL 5
REMARK VINA RESULT:      -5.5     13.056     15.682
REMARK  7 active torsions:
REMARK  status: ('A' for Active; 'I' for Inactive)
REMARK    1  A    between atoms: C_2  and  C_3 
REMARK    2  A    between atoms: C_3  and  O_6 
REMARK    3  A    between atoms: C_3  and  C_4 
REMARK    4  A    between atoms: C_7  and  O_6 
REMARK    5  A    between atoms: C_9  and  C_10 
REMARK    6  A    between atoms: N_15  and  C_14 
REMARK    7  A    between atoms: N_20  and  C_19 
REMARK       I    between atoms: C_22  and  N_20 
ROOT
ATOM      1  C   LIG d   1       1.830  85.547 113.389  0.00  0.00     0.161 C 
ATOM      2  C   LIG d   1       2.070  86.820 112.845  0.00  0.00     0.016 C 
ATOM      3  C   LIG d   1       2.913  87.779 113.452  0.00  0.00     0.038 C 
ATOM      4  C   LIG d   1       3.697  87.473 114.574  0.00  0.00     0.028 C 
ATOM      5  C   LIG d   1       3.104  86.371 115.445  0.00  0.00    -0.047 C 
ATOM      6  C   LIG d   1       2.764  85.155 114.553  0.00  0.00     0.091 C 
ENDROOT
BRANCH   1   7
ATOM      7  O   LIG d   1       1.883  84.553 112.347  0.00  0.00    -0.368 OA
BRANCH   7   8
ATOM      8  C   LIG d   1       2.405  84.996 111.070  0.00  0.00     0.119 C 
BRANCH   8   9
ATOM      9  C   LIG d   1       1.387  84.587 109.987  0.00  0.00     0.028 C 
ATOM     10  C   LIG d   1       0.690  85.800 109.349  0.00  0.00     0.006 C 
ENDBRANCH   8   9
BRANCH   8  11
ATOM     11  C   LIG d   1       3.698  84.257 110.710  0.00  0.00     0.028 C 
ATOM     12  C   LIG d   1       3.543  83.352 109.477  0.00  0.00     0.006 C 
ENDBRANCH   8  11
ENDBRANCH   7   8
ENDBRANCH   1   7
BRANCH   6  13
ATOM     13  N   LIG d   1       2.101  84.063 115.313  0.00  0.00    -0.311 N 
ATOM     14  C   LIG d   1       2.769  83.101 115.948  0.00  0.00     0.210 C 
ATOM     15  C   LIG d   1       1.892  82.062 116.652  0.00  0.00     0.109 C 
ATOM     16  O   LIG d   1       4.005  83.029 116.021  0.00  0.00    -0.276 OA
ATOM     17  H   LIG d   1       1.100  84.062 115.331  0.00  0.00     0.149 HD
ENDBRANCH   6  13
BRANCH   5  18
ATOM     18  N   LIG d   1       4.088  86.057 116.498  0.00  0.00     0.381 N 
ATOM     19  H   LIG d   1       4.692  86.842 116.643  0.00  0.00    -0.090 HD
ATOM     20  H   LIG d   1       4.649  85.279 116.198  0.00  0.00    -0.090 HD
ATOM     21  H   LIG d   1       3.618  85.830 117.347  0.00  0.00    -0.090 HD
ENDBRANCH   5  18
BRANCH   3  22
ATOM     22  C   LIG d   1       2.946  89.075 112.959  0.00  0.00     0.382 C 
ATOM     23  O   LIG d   1       1.877  89.660 112.660  0.00  0.00    -0.241 OA
ATOM     24  O   LIG d   1       4.035  89.650 112.768  0.00  0.00    -0.241 OA
ENDBRANCH   3  22
TORSDOF 7
ENDMDL
MODEL 6
REMARK VINA RESULT:      -5.3     12.341     14.533
REMARK  7 active torsions:
REMARK  status: ('A' for Active; 'I' for Inactive)
REMARK    1  A    between atoms: C_2  and  C_3 
REMARK    2  A    between atoms: C_3  and  O_6 
REMARK    3  A    between atoms: C_3  and  C_4 
REMARK    4  A    between atoms: C_7  and  O_6 
REMARK    5  A    between atoms: C_9  and  C_10 
REMARK    6  A    between atoms: N_15  and  C_14 
REMARK    7  A    between atoms: N_20  and  C_19 
REMARK       I    between atoms: C_22  and  N_20 
ROOT
ATOM      1  C   LIG d   1       2.152  83.861 112.842  0.00  0.00     0.161 C 
ATOM      2  C   LIG d   1       2.148  85.051 112.096  0.00  0.00     0.016 C 
ATOM      3  C   LIG d   1       2.226  86.336 112.681  0.00  0.00     0.038 C 
ATOM      4  C   LIG d   1       2.466  86.514 114.052  0.00  0.00     0.028 C 
ATOM      5  C   LIG d   1       1.972  85.353 114.908  0.00  0.00    -0.047 C 
ATOM      6  C   LIG d   1       2.525  84.031 114.330  0.00  0.00     0.091 C 
ENDROOT
BRANCH   1   7
ATOM      7  O   LIG d   1       3.018  82.894 112.215  0.00  0.00    -0.368 OA
BRANCH   7   8
ATOM      8  C   LIG d   1       2.567  82.363 110.945  0.00  0.00     0.119 C 
BRANCH   8   9
ATOM      9  C   LIG d   1       1.659  81.154 111.245  0.00  0.00     0.028 C 
ATOM     10  C   LIG d   1       1.740  80.074 110.153  0.00  0.00     0.006 C 
ENDBRANCH   8   9
BRANCH   8  11
ATOM     11  C   LIG d   1       3.735  81.801 110.130  0.00  0.00     0.028 C 
ATOM     12  C   LIG d   1       4.605  82.899 109.500  0.00  0.00     0.006 C 
ENDBRANCH   8  11
ENDBRANCH   7   8
ENDBRANCH   1   7
BRANCH   6  13
ATOM     13  N   LIG d   1       2.021  82.838 115.059  0.00  0.00    -0.311 N 
ATOM     14  C   LIG d   1       2.727  82.192 115.985  0.00  0.00     0.210 C 
ATOM     15  C   LIG d   1       2.028  80.976 116.600  0.00  0.00     0.109 C 
ATOM     16  O   LIG d   1       3.853  82.531 116.379  0.00  0.00    -0.276 OA
ATOM     17  H   LIG d   1       1.103  82.514 114.824  0.00  0.00     0.149 HD
ENDBRANCH   6  13
BRANCH   5  18
ATOM     18  N   LIG d   1       2.409  85.605 116.295  0.00  0.00     0.381 N 
ATOM     19  H   LIG d   1       2.252  84.789 116.853  0.00  0.00    -0.090 HD
ATOM     20  H   LIG d   1       1.863  86.358 116.676  0.00  0.00    -0.090 HD
ATOM     21  H   LIG d   1       3.375  85.845 116.309  0.00  0.00    -0.090 HD
ENDBRANCH   5  18
BRANCH   3  22
ATOM     22  C   LIG d   1       2.023  87.462 111.897  0.00  0.00     0.382 C 
ATOM     23  O   LIG d   1       1.937  87.350 110.650  0.00  0.00    -0.241 OA
ATOM     24  O   LIG d   1       1.968  88.592 112.417  0.00  0.00    -0.241 OA
ENDBRANCH   3  22
TORSDOF 7
ENDMDL
MODEL 7
REMARK VINA RESULT:      -5.2     13.287     15.847
REMARK  7 active torsions:
REMARK  status: ('A' for Active; 'I' for Inactive)
REMARK    1  A    between atoms: C_2  and  C_3 
REMARK    2  A    between atoms: C_3  and  O_6 
REMARK    3  A    between atoms: C_3  and  C_4 
REMARK    4  A    between atoms: C_7  and  O_6 
REMARK    5  A    between atoms: C_9  and  C_10 
REMARK    6  A    between atoms: N_15  and  C_14 
REMARK    7  A    between atoms: N_20  and  C_19 
REMARK       I    between atoms: C_22  and  N_20 
ROOT
ATOM      1  C   LIG d   1       3.331  85.881 112.772  0.00  0.00     0.161 C 
ATOM      2  C   LIG d   1       2.869  84.585 113.054  0.00  0.00     0.016 C 
ATOM      3  C   LIG d   1       2.405  84.184 114.328  0.00  0.00     0.038 C 
ATOM      4  C   LIG d   1       2.229  85.101 115.375  0.00  0.00     0.028 C 
ATOM      5  C   LIG d   1       3.156  86.308 115.285  0.00  0.00    -0.047 C 
ATOM      6  C   LIG d   1       3.042  86.924 113.872  0.00  0.00     0.091 C 
ENDROOT
BRANCH   1   7
ATOM      7  O   LIG d   1       2.799  86.325 111.508  0.00  0.00    -0.368 OA
BRANCH   7   8
ATOM      8  C   LIG d   1       1.440  85.920 111.211  0.00  0.00     0.119 C 
BRANCH   8   9
ATOM      9  C   LIG d   1       1.364  85.627 109.700  0.00  0.00     0.028 C 
ATOM     10  C   LIG d   1       1.740  84.174 109.365  0.00  0.00     0.006 C 
ENDBRANCH   8   9
BRANCH   8  11
ATOM     11  C   LIG d   1       0.452  87.066 111.452  0.00  0.00     0.028 C 
ATOM     12  C   LIG d   1      -0.949  86.772 110.893  0.00  0.00     0.006 C 
ENDBRANCH   8  11
ENDBRANCH   7   8
ENDBRANCH   1   7
BRANCH   6  13
ATOM     13  N   LIG d   1       3.979  88.060 113.672  0.00  0.00    -0.311 N 
ATOM     14  C   LIG d   1       3.625  89.336 113.815  0.00  0.00     0.210 C 
ATOM     15  C   LIG d   1       4.740  90.351 113.542  0.00  0.00     0.109 C 
ATOM     16  O   LIG d   1       2.503  89.723 114.174  0.00  0.00    -0.276 OA
ATOM     17  H   LIG d   1       4.919  87.835 113.409  0.00  0.00     0.149 HD
ENDBRANCH   6  13
BRANCH   5  18
ATOM     18  N   LIG d   1       2.771  87.246 116.357  0.00  0.00     0.381 N 
ATOM     19  H   LIG d   1       3.375  87.125 117.145  0.00  0.00    -0.090 HD
ATOM     20  H   LIG d   1       1.831  87.042 116.646  0.00  0.00    -0.090 HD
ATOM     21  H   LIG d   1       2.829  88.184 116.026  0.00  0.00    -0.090 HD
ENDBRANCH   5  18
BRANCH   3  22
ATOM     22  C   LIG d   1       2.149  82.844 114.576  0.00  0.00     0.382 C 
ATOM     23  O   LIG d   1       2.075  82.428 115.758  0.00  0.00    -0.241 OA
ATOM     24  O   LIG d   1       2.035  82.038 113.634  0.00  0.00    -0.241 OA
ENDBRANCH   3  22
TORSDOF 7
ENDMDL
MODEL 8
REMARK VINA RESULT:      -5.2      4.335      6.734
REMARK  7 active torsions:
REMARK  status: ('A' for Active; 'I' for Inactive)
REMARK    1  A    between atoms: C_2  and  C_3 
REMARK    2  A    between atoms: C_3  and  O_6 
REMARK    3  A    between atoms: C_3  and  C_4 
REMARK    4  A    between atoms: C_7  and  O_6 
REMARK    5  A    between atoms: C_9  and  C_10 
REMARK    6  A    between atoms: N_15  and  C_14 
REMARK    7  A    between atoms: N_20  and  C_19 
REMARK       I    between atoms: C_22  and  N_20 
ROOT
ATOM      1  C   LIG d   1      -2.799  77.033 115.977  0.00  0.00     0.161 C 
ATOM      2  C   LIG d   1      -3.055  77.996 114.987  0.00  0.00     0.016 C 
ATOM      3  C   LIG d   1      -2.276  78.132 113.815  0.00  0.00     0.038 C 
ATOM      4  C   LIG d   1      -1.273  77.210 113.479  0.00  0.00     0.028 C 
ATOM      5  C   LIG d   1      -0.650  76.525 114.691  0.00  0.00    -0.047 C 
ATOM      6  C   LIG d   1      -1.778  75.947 115.575  0.00  0.00     0.091 C 
ENDROOT
BRANCH   1   7
ATOM      7  O   LIG d   1      -4.036  76.425 116.399  0.00  0.00    -0.368 OA
BRANCH   7   8
ATOM      8  C   LIG d   1      -4.486  75.288 115.622  0.00  0.00     0.119 C 
BRANCH   8   9
ATOM      9  C   LIG d   1      -5.861  75.649 115.027  0.00  0.00     0.028 C 
ATOM     10  C   LIG d   1      -5.837  75.711 113.490  0.00  0.00     0.006 C 
ENDBRANCH   8   9
BRANCH   8  11
ATOM     11  C   LIG d   1      -4.737  74.068 116.513  0.00  0.00     0.028 C 
ATOM     12  C   LIG d   1      -6.088  73.393 116.231  0.00  0.00     0.006 C 
ENDBRANCH   8  11
ENDBRANCH   7   8
ENDBRANCH   1   7
BRANCH   6  13
ATOM     13  N   LIG d   1      -1.260  75.333 116.826  0.00  0.00    -0.311 N 
ATOM     14  C   LIG d   1      -0.950  74.042 116.934  0.00  0.00     0.210 C 
ATOM     15  C   LIG d   1      -0.451  73.611 118.317  0.00  0.00     0.109 C 
ATOM     16  O   LIG d   1      -1.009  73.220 116.007  0.00  0.00    -0.276 OA
ATOM     17  H   LIG d   1      -1.151  75.934 117.618  0.00  0.00     0.149 HD
ENDBRANCH   6  13
BRANCH   5  18
ATOM     18  N   LIG d   1       0.279  75.494 114.191  0.00  0.00     0.381 N 
ATOM     19  H   LIG d   1       0.509  74.859 114.929  0.00  0.00    -0.090 HD
ATOM     20  H   LIG d   1       1.125  75.940 113.883  0.00  0.00    -0.090 HD
ATOM     21  H   LIG d   1      -0.138  74.998 113.434  0.00  0.00    -0.090 HD
ENDBRANCH   5  18
BRANCH   3  22
ATOM     22  C   LIG d   1      -2.471  79.225 112.983  0.00  0.00     0.382 C 
ATOM     23  O   LIG d   1      -1.951  79.244 111.841  0.00  0.00    -0.241 OA
ATOM     24  O   LIG d   1      -3.123  80.210 113.377  0.00  0.00    -0.241 OA
ENDBRANCH   3  22
TORSDOF 7
ENDMDL
MODEL 9
REMARK VINA RESULT:      -5.1      2.525      3.404
REMARK  7 active torsions:
REMARK  status: ('A' for Active; 'I' for Inactive)
REMARK    1  A    between atoms: C_2  and  C_3 
REMARK    2  A    between atoms: C_3  and  O_6 
REMARK    3  A    between atoms: C_3  and  C_4 
REMARK    4  A    between atoms: C_7  and  O_6 
REMARK    5  A    between atoms: C_9  and  C_10 
REMARK    6  A    between atoms: N_15  and  C_14 
REMARK    7  A    between atoms: N_20  and  C_19 
REMARK       I    between atoms: C_22  and  N_20 
ROOT
ATOM      1  C   LIG d   1      -5.816  76.950 117.342  0.00  0.00     0.161 C 
ATOM      2  C   LIG d   1      -6.538  78.140 117.527  0.00  0.00     0.016 C 
ATOM      3  C   LIG d   1      -5.975  79.426 117.355  0.00  0.00     0.038 C 
ATOM      4  C   LIG d   1      -4.685  79.608 116.836  0.00  0.00     0.028 C 
ATOM      5  C   LIG d   1      -3.750  78.436 117.115  0.00  0.00    -0.047 C 
ATOM      6  C   LIG d   1      -4.439  77.126 116.668  0.00  0.00     0.091 C 
ENDROOT
BRANCH   1   7
ATOM      7  O   LIG d   1      -6.615  76.002 116.606  0.00  0.00    -0.368 OA
BRANCH   7   8
ATOM      8  C   LIG d   1      -7.170  74.905 117.372  0.00  0.00     0.119 C 
BRANCH   8   9
ATOM      9  C   LIG d   1      -6.544  73.603 116.836  0.00  0.00     0.028 C 
ATOM     10  C   LIG d   1      -6.232  73.678 115.332  0.00  0.00     0.006 C 
ENDBRANCH   8   9
BRANCH   8  11
ATOM     11  C   LIG d   1      -8.675  74.762 117.130  0.00  0.00     0.028 C 
ATOM     12  C   LIG d   1      -9.497  75.868 117.811  0.00  0.00     0.006 C 
ENDBRANCH   8  11
ENDBRANCH   7   8
ENDBRANCH   1   7
BRANCH   6  13
ATOM     13  N   LIG d   1      -3.626  75.922 116.983  0.00  0.00    -0.311 N 
ATOM     14  C   LIG d   1      -3.032  75.175 116.054  0.00  0.00     0.210 C 
ATOM     15  C   LIG d   1      -2.260  73.967 116.592  0.00  0.00     0.109 C 
ATOM     16  O   LIG d   1      -3.045  75.417 114.837  0.00  0.00    -0.276 OA
ATOM     17  H   LIG d   1      -3.537  75.672 117.948  0.00  0.00     0.149 HD
ENDBRANCH   6  13
BRANCH   5  18
ATOM     18  N   LIG d   1      -2.484  78.696 116.402  0.00  0.00     0.381 N 
ATOM     19  H   LIG d   1      -1.746  78.833 117.063  0.00  0.00    -0.090 HD
ATOM     20  H   LIG d   1      -2.583  79.536 115.861  0.00  0.00    -0.090 HD
ATOM     21  H   LIG d   1      -2.266  77.930 115.804  0.00  0.00    -0.090 HD
ENDBRANCH   5  18
BRANCH   3  22
ATOM     22  C   LIG d   1      -6.693  80.547 117.742  0.00  0.00     0.382 C 
ATOM     23  O   LIG d   1      -7.100  81.361 116.877  0.00  0.00    -0.241 OA
ATOM     24  O   LIG d   1      -6.902  80.779 118.948  0.00  0.00    -0.241 OA
ENDBRANCH   3  22
TORSDOF 7
ENDMDL
