MODEL 1
REMARK VINA RESULT:      -6.6      0.000      0.000
REMARK  7 active torsions:
REMARK  status: ('A' for Active; 'I' for Inactive)
REMARK    1  A    between atoms: C_2  and  C_3 
REMARK    2  A    between atoms: C_3  and  O_6 
REMARK    3  A    between atoms: C_3  and  C_4 
REMARK    4  A    between atoms: C_7  and  O_6 
REMARK    5  A    between atoms: C_9  and  C_10 
REMARK    6  A    between atoms: N_15  and  C_14 
REMARK    7  A    between atoms: N_20  and  C_19 
REMARK       I    between atoms: C_22  and  N_20 
ROOT
ATOM      1  C   LIG d   1       0.178  82.535 111.111  0.00  0.00     0.161 C 
ATOM      2  C   LIG d   1      -0.925  82.172 111.901  0.00  0.00     0.016 C 
ATOM      3  C   LIG d   1      -1.351  80.835 112.074  0.00  0.00     0.038 C 
ATOM      4  C   LIG d   1      -0.607  79.750 111.587  0.00  0.00     0.028 C 
ATOM      5  C   LIG d   1       0.231  80.094 110.360  0.00  0.00    -0.047 C 
ATOM      6  C   LIG d   1       1.068  81.358 110.662  0.00  0.00     0.091 C 
ENDROOT
BRANCH   1   7
ATOM      7  O   LIG d   1       0.968  83.525 111.800  0.00  0.00    -0.368 OA
BRANCH   7   8
ATOM      8  C   LIG d   1       0.940  84.863 111.243  0.00  0.00     0.119 C 
BRANCH   8   9
ATOM      9  C   LIG d   1      -0.074  84.860 110.083  0.00  0.00     0.028 C 
ATOM     10  C   LIG d   1       0.553  85.315 108.754  0.00  0.00     0.006 C 
ENDBRANCH   8   9
BRANCH   8  11
ATOM     11  C   LIG d   1       2.284  85.228 110.605  0.00  0.00     0.028 C 
ATOM     12  C   LIG d   1       3.484  84.871 111.497  0.00  0.00     0.006 C 
ENDBRANCH   8  11
ENDBRANCH   7   8
ENDBRANCH   1   7
BRANCH   6  13
ATOM     13  N   LIG d   1       1.854  81.811 109.485  0.00  0.00    -0.311 N 
ATOM     14  C   LIG d   1       3.186  81.813 109.449  0.00  0.00     0.210 C 
ATOM     15  C   LIG d   1       3.797  82.339 108.147  0.00  0.00     0.109 C 
ATOM     16  O   LIG d   1       3.918  81.398 110.360  0.00  0.00    -0.276 OA
ATOM     17  H   LIG d   1       1.339  82.135 108.690  0.00  0.00     0.149 HD
ENDBRANCH   6  13
BRANCH   5  18
ATOM     18  N   LIG d   1       1.058  78.915 110.041  0.00  0.00     0.381 N 
ATOM     19  H   LIG d   1       1.365  78.478 110.887  0.00  0.00    -0.090 HD
ATOM     20  H   LIG d   1       1.869  79.215 109.529  0.00  0.00    -0.090 HD
ATOM     21  H   LIG d   1       0.533  78.267 109.496  0.00  0.00    -0.090 HD
ENDBRANCH   5  18
BRANCH   3  22
ATOM     22  C   LIG d   1      -2.557  80.575 112.708  0.00  0.00     0.382 C 
ATOM     23  O   LIG d   1      -2.632  79.656 113.559  0.00  0.00    -0.241 OA
ATOM     24  O   LIG d   1      -3.580  81.219 112.408  0.00  0.00    -0.241 OA
ENDBRANCH   3  22
TORSDOF 7
ENDMDL
MODEL 2
REMARK VINA RESULT:      -6.5      1.686      5.026
REMARK  7 active torsions:
REMARK  status: ('A' for Active; 'I' for Inactive)
REMARK    1  A    between atoms: C_2  and  C_3 
REMARK    2  A    between atoms: C_3  and  O_6 
REMARK    3  A    between atoms: C_3  and  C_4 
REMARK    4  A    between atoms: C_7  and  O_6 
REMARK    5  A    between atoms: C_9  and  C_10 
REMARK    6  A    between atoms: N_15  and  C_14 
REMARK    7  A    between atoms: N_20  and  C_19 
REMARK       I    between atoms: C_22  and  N_20 
ROOT
ATOM      1  C   LIG d   1       1.397  81.520 111.673  0.00  0.00     0.161 C 
ATOM      2  C   LIG d   1       2.389  82.093 110.860  0.00  0.00     0.016 C 
ATOM      3  C   LIG d   1       2.443  81.919 109.458  0.00  0.00     0.038 C 
ATOM      4  C   LIG d   1       1.413  81.280 108.750  0.00  0.00     0.028 C 
ATOM      5  C   LIG d   1       0.653  80.253 109.582  0.00  0.00    -0.047 C 
ATOM      6  C   LIG d   1       0.204  80.913 110.906  0.00  0.00     0.091 C 
ENDROOT
BRANCH   1   7
ATOM      7  O   LIG d   1       0.934  82.489 112.634  0.00  0.00    -0.368 OA
BRANCH   7   8
ATOM      8  C   LIG d   1       0.953  83.873 112.204  0.00  0.00     0.119 C 
BRANCH   8   9
ATOM      9  C   LIG d   1       1.373  84.728 113.415  0.00  0.00     0.028 C 
ATOM     10  C   LIG d   1       2.134  85.999 113.001  0.00  0.00     0.006 C 
ENDBRANCH   8   9
BRANCH   8  11
ATOM     11  C   LIG d   1      -0.451  84.360 111.831  0.00  0.00     0.028 C 
ATOM     12  C   LIG d   1      -0.619  84.593 110.322  0.00  0.00     0.006 C 
ENDBRANCH   8  11
ENDBRANCH   7   8
ENDBRANCH   1   7
BRANCH   6  13
ATOM     13  N   LIG d   1      -0.474  79.953 111.816  0.00  0.00    -0.311 N 
ATOM     14  C   LIG d   1      -1.664  80.183 112.368  0.00  0.00     0.210 C 
ATOM     15  C   LIG d   1      -2.174  79.071 113.292  0.00  0.00     0.109 C 
ATOM     16  O   LIG d   1      -2.361  81.186 112.156  0.00  0.00    -0.276 OA
ATOM     17  H   LIG d   1       0.007  79.099 112.018  0.00  0.00     0.149 HD
ENDBRANCH   6  13
BRANCH   5  18
ATOM     18  N   LIG d   1      -0.475  79.765 108.767  0.00  0.00     0.381 N 
ATOM     19  H   LIG d   1      -1.321  80.213 109.058  0.00  0.00    -0.090 HD
ATOM     20  H   LIG d   1      -0.576  78.776 108.910  0.00  0.00    -0.090 HD
ATOM     21  H   LIG d   1      -0.306  79.953 107.803  0.00  0.00    -0.090 HD
ENDBRANCH   5  18
BRANCH   3  22
ATOM     22  C   LIG d   1       3.555  82.353 108.753  0.00  0.00     0.382 C 
ATOM     23  O   LIG d   1       3.546  82.344 107.498  0.00  0.00    -0.241 OA
ATOM     24  O   LIG d   1       4.585  82.710 109.356  0.00  0.00    -0.241 OA
ENDBRANCH   3  22
TORSDOF 7
ENDMDL
MODEL 3
REMARK VINA RESULT:      -6.2      2.366      4.297
REMARK  7 active torsions:
REMARK  status: ('A' for Active; 'I' for Inactive)
REMARK    1  A    between atoms: C_2  and  C_3 
REMARK    2  A    between atoms: C_3  and  O_6 
REMARK    3  A    between atoms: C_3  and  C_4 
REMARK    4  A    between atoms: C_7  and  O_6 
REMARK    5  A    between atoms: C_9  and  C_10 
REMARK    6  A    between atoms: N_15  and  C_14 
REMARK    7  A    between atoms: N_20  and  C_19 
REMARK       I    between atoms: C_22  and  N_20 
ROOT
ATOM      1  C   LIG d   1       2.197  82.688 111.829  0.00  0.00     0.161 C 
ATOM      2  C   LIG d   1       1.107  81.804 111.772  0.00  0.00     0.016 C 
ATOM      3  C   LIG d   1      -0.241  82.231 111.755  0.00  0.00     0.038 C 
ATOM      4  C   LIG d   1      -0.588  83.585 111.641  0.00  0.00     0.028 C 
ATOM      5  C   LIG d   1       0.467  84.531 112.204  0.00  0.00    -0.047 C 
ATOM      6  C   LIG d   1       1.841  84.170 111.593  0.00  0.00     0.091 C 
ENDROOT
BRANCH   1   7
ATOM      7  O   LIG d   1       3.218  82.264 110.904  0.00  0.00    -0.368 OA
BRANCH   7   8
ATOM      8  C   LIG d   1       2.752  81.648 109.679  0.00  0.00     0.119 C 
BRANCH   8   9
ATOM      9  C   LIG d   1       3.626  80.404 109.425  0.00  0.00     0.028 C 
ATOM     10  C   LIG d   1       2.787  79.137 109.187  0.00  0.00     0.006 C 
ENDBRANCH   8   9
BRANCH   8  11
ATOM     11  C   LIG d   1       2.986  82.560 108.471  0.00  0.00     0.028 C 
ATOM     12  C   LIG d   1       1.678  83.007 107.800  0.00  0.00     0.006 C 
ENDBRANCH   8  11
ENDBRANCH   7   8
ENDBRANCH   1   7
BRANCH   6  13
ATOM     13  N   LIG d   1       2.944  84.993 112.154  0.00  0.00    -0.311 N 
ATOM     14  C   LIG d   1       3.292  86.183 111.667  0.00  0.00     0.210 C 
ATOM     15  C   LIG d   1       4.470  86.855 112.380  0.00  0.00     0.109 C 
ATOM     16  O   LIG d   1       2.716  86.761 110.733  0.00  0.00    -0.276 OA
ATOM     17  H   LIG d   1       3.445  84.614 112.934  0.00  0.00     0.149 HD
ENDBRANCH   6  13
BRANCH   5  18
ATOM     18  N   LIG d   1       0.041  85.909 111.896  0.00  0.00     0.381 N 
ATOM     19  H   LIG d   1       0.268  86.513 112.660  0.00  0.00    -0.090 HD
ATOM     20  H   LIG d   1      -0.956  85.920 111.770  0.00  0.00    -0.090 HD
ATOM     21  H   LIG d   1       0.491  86.227 111.066  0.00  0.00    -0.090 HD
ENDBRANCH   5  18
BRANCH   3  22
ATOM     22  C   LIG d   1      -1.258  81.299 111.894  0.00  0.00     0.382 C 
ATOM     23  O   LIG d   1      -1.100  80.130 111.467  0.00  0.00    -0.241 OA
ATOM     24  O   LIG d   1      -2.349  81.625 112.400  0.00  0.00    -0.241 OA
ENDBRANCH   3  22
TORSDOF 7
ENDMDL
MODEL 4
REMARK VINA RESULT:      -5.8      3.225      4.783
REMARK  7 active torsions:
REMARK  status: ('A' for Active; 'I' for Inactive)
REMARK    1  A    between atoms: C_2  and  C_3 
REMARK    2  A    between atoms: C_3  and  O_6 
REMARK    3  A    between atoms: C_3  and  C_4 
REMARK    4  A    between atoms: C_7  and  O_6 
REMARK    5  A    between atoms: C_9  and  C_10 
REMARK    6  A    between atoms: N_15  and  C_14 
REMARK    7  A    between atoms: N_20  and  C_19 
REMARK       I    between atoms: C_22  and  N_20 
ROOT
ATOM      1  C   LIG d   1       2.423  83.573 111.220  0.00  0.00     0.161 C 
ATOM      2  C   LIG d   1       3.048  82.799 110.228  0.00  0.00     0.016 C 
ATOM      3  C   LIG d   1       3.075  81.385 110.247  0.00  0.00     0.038 C 
ATOM      4  C   LIG d   1       2.344  80.642 111.186  0.00  0.00     0.028 C 
ATOM      5  C   LIG d   1       2.115  81.383 112.499  0.00  0.00    -0.047 C 
ATOM      6  C   LIG d   1       1.526  82.779 112.191  0.00  0.00     0.091 C 
ENDROOT
BRANCH   1   7
ATOM      7  O   LIG d   1       1.674  84.641 110.606  0.00  0.00    -0.368 OA
BRANCH   7   8
ATOM      8  C   LIG d   1       0.593  84.239 109.730  0.00  0.00     0.119 C 
BRANCH   8   9
ATOM      9  C   LIG d   1       0.917  84.770 108.320  0.00  0.00     0.028 C 
ATOM     10  C   LIG d   1       1.295  83.645 107.342  0.00  0.00     0.006 C 
ENDBRANCH   8   9
BRANCH   8  11
ATOM     11  C   LIG d   1      -0.724  84.914 110.124  0.00  0.00     0.028 C 
ATOM     12  C   LIG d   1      -0.560  85.908 111.285  0.00  0.00     0.006 C 
ENDBRANCH   8  11
ENDBRANCH   7   8
ENDBRANCH   1   7
BRANCH   6  13
ATOM     13  N   LIG d   1       1.350  83.602 113.416  0.00  0.00    -0.311 N 
ATOM     14  C   LIG d   1       2.362  83.998 114.186  0.00  0.00     0.210 C 
ATOM     15  C   LIG d   1       1.959  84.822 115.412  0.00  0.00     0.109 C 
ATOM     16  O   LIG d   1       3.559  83.771 113.952  0.00  0.00    -0.276 OA
ATOM     17  H   LIG d   1       0.414  83.858 113.663  0.00  0.00     0.149 HD
ENDBRANCH   6  13
BRANCH   5  18
ATOM     18  N   LIG d   1       1.226  80.551 113.331  0.00  0.00     0.381 N 
ATOM     19  H   LIG d   1       0.416  80.290 112.805  0.00  0.00    -0.090 HD
ATOM     20  H   LIG d   1       0.926  81.089 114.126  0.00  0.00    -0.090 HD
ATOM     21  H   LIG d   1       1.709  79.735 113.637  0.00  0.00    -0.090 HD
ENDBRANCH   5  18
BRANCH   3  22
ATOM     22  C   LIG d   1       3.873  80.701 109.343  0.00  0.00     0.382 C 
ATOM     23  O   LIG d   1       4.391  81.311 108.377  0.00  0.00    -0.241 OA
ATOM     24  O   LIG d   1       4.045  79.472 109.455  0.00  0.00    -0.241 OA
ENDBRANCH   3  22
TORSDOF 7
ENDMDL
MODEL 5
REMARK VINA RESULT:      -5.7      2.386      5.072
REMARK  7 active torsions:
REMARK  status: ('A' for Active; 'I' for Inactive)
REMARK    1  A    between atoms: C_2  and  C_3 
REMARK    2  A    between atoms: C_3  and  O_6 
REMARK    3  A    between atoms: C_3  and  C_4 
REMARK    4  A    between atoms: C_7  and  O_6 
REMARK    5  A    between atoms: C_9  and  C_10 
REMARK    6  A    between atoms: N_15  and  C_14 
REMARK    7  A    between atoms: N_20  and  C_19 
REMARK       I    between atoms: C_22  and  N_20 
ROOT
ATOM      1  C   LIG d   1       0.171  82.706 110.765  0.00  0.00     0.161 C 
ATOM      2  C   LIG d   1      -0.321  83.948 111.199  0.00  0.00     0.016 C 
ATOM      3  C   LIG d   1      -0.268  85.123 110.415  0.00  0.00     0.038 C 
ATOM      4  C   LIG d   1       0.148  85.103 109.076  0.00  0.00     0.028 C 
ATOM      5  C   LIG d   1       1.124  83.974 108.762  0.00  0.00    -0.047 C 
ATOM      6  C   LIG d   1       0.527  82.640 109.265  0.00  0.00     0.091 C 
ENDROOT
BRANCH   1   7
ATOM      7  O   LIG d   1      -0.764  81.664 111.104  0.00  0.00    -0.368 OA
BRANCH   7   8
ATOM      8  C   LIG d   1      -0.455  80.891 112.290  0.00  0.00     0.119 C 
BRANCH   8   9
ATOM      9  C   LIG d   1       1.051  80.570 112.254  0.00  0.00     0.028 C 
ATOM     10  C   LIG d   1       1.743  80.847 113.599  0.00  0.00     0.006 C 
ENDBRANCH   8   9
BRANCH   8  11
ATOM     11  C   LIG d   1      -1.160  79.531 112.269  0.00  0.00     0.028 C 
ATOM     12  C   LIG d   1      -1.914  79.230 113.574  0.00  0.00     0.006 C 
ENDBRANCH   8  11
ENDBRANCH   7   8
ENDBRANCH   1   7
BRANCH   6  13
ATOM     13  N   LIG d   1       1.456  81.495 109.073  0.00  0.00    -0.311 N 
ATOM     14  C   LIG d   1       1.053  80.276 108.721  0.00  0.00     0.210 C 
ATOM     15  C   LIG d   1       2.171  79.236 108.597  0.00  0.00     0.109 C 
ATOM     16  O   LIG d   1      -0.121  79.964 108.468  0.00  0.00    -0.276 OA
ATOM     17  H   LIG d   1       2.430  81.667 109.227  0.00  0.00     0.149 HD
ENDBRANCH   6  13
BRANCH   5  18
ATOM     18  N   LIG d   1       1.367  83.987 107.307  0.00  0.00     0.381 N 
ATOM     19  H   LIG d   1       0.813  84.700 106.877  0.00  0.00    -0.090 HD
ATOM     20  H   LIG d   1       1.091  83.100 106.924  0.00  0.00    -0.090 HD
ATOM     21  H   LIG d   1       2.332  84.150 107.124  0.00  0.00    -0.090 HD
ENDBRANCH   5  18
BRANCH   3  22
ATOM     22  C   LIG d   1      -0.596  86.344 110.985  0.00  0.00     0.382 C 
ATOM     23  O   LIG d   1      -1.801  86.663 111.134  0.00  0.00    -0.241 OA
ATOM     24  O   LIG d   1       0.296  87.150 111.310  0.00  0.00    -0.241 OA
ENDBRANCH   3  22
TORSDOF 7
ENDMDL
MODEL 6
REMARK VINA RESULT:      -5.3      2.069      3.925
REMARK  7 active torsions:
REMARK  status: ('A' for Active; 'I' for Inactive)
REMARK    1  A    between atoms: C_2  and  C_3 
REMARK    2  A    between atoms: C_3  and  O_6 
REMARK    3  A    between atoms: C_3  and  C_4 
REMARK    4  A    between atoms: C_7  and  O_6 
REMARK    5  A    between atoms: C_9  and  C_10 
REMARK    6  A    between atoms: N_15  and  C_14 
REMARK    7  A    between atoms: N_20  and  C_19 
REMARK       I    between atoms: C_22  and  N_20 
ROOT
ATOM      1  C   LIG d   1       1.630  81.722 111.126  0.00  0.00     0.161 C 
ATOM      2  C   LIG d   1       0.672  80.745 111.442  0.00  0.00     0.016 C 
ATOM      3  C   LIG d   1      -0.639  81.051 111.872  0.00  0.00     0.038 C 
ATOM      4  C   LIG d   1      -1.132  82.365 111.870  0.00  0.00     0.028 C 
ATOM      5  C   LIG d   1      -0.045  83.420 112.042  0.00  0.00    -0.047 C 
ATOM      6  C   LIG d   1       1.077  83.157 111.011  0.00  0.00     0.091 C 
ENDROOT
BRANCH   1   7
ATOM      7  O   LIG d   1       2.323  81.354 109.916  0.00  0.00    -0.368 OA
BRANCH   7   8
ATOM      8  C   LIG d   1       3.708  80.957 110.070  0.00  0.00     0.119 C 
BRANCH   8   9
ATOM      9  C   LIG d   1       4.571  81.986 109.314  0.00  0.00     0.028 C 
ATOM     10  C   LIG d   1       3.927  82.431 107.990  0.00  0.00     0.006 C 
ENDBRANCH   8   9
BRANCH   8  11
ATOM     11  C   LIG d   1       3.983  79.615 109.385  0.00  0.00     0.028 C 
ATOM     12  C   LIG d   1       2.697  78.845 109.046  0.00  0.00     0.006 C 
ENDBRANCH   8  11
ENDBRANCH   7   8
ENDBRANCH   1   7
BRANCH   6  13
ATOM     13  N   LIG d   1       2.220  84.094 111.166  0.00  0.00    -0.311 N 
ATOM     14  C   LIG d   1       3.014  84.111 112.235  0.00  0.00     0.210 C 
ATOM     15  C   LIG d   1       4.121  85.170 112.201  0.00  0.00     0.109 C 
ATOM     16  O   LIG d   1       2.928  83.328 113.193  0.00  0.00    -0.276 OA
ATOM     17  H   LIG d   1       2.382  84.743 110.421  0.00  0.00     0.149 HD
ENDBRANCH   6  13
BRANCH   5  18
ATOM     18  N   LIG d   1      -0.678  84.742 111.883  0.00  0.00     0.381 N 
ATOM     19  H   LIG d   1       0.012  85.461 111.969  0.00  0.00    -0.090 HD
ATOM     20  H   LIG d   1      -1.356  84.868 112.614  0.00  0.00    -0.090 HD
ATOM     21  H   LIG d   1      -1.123  84.803 110.994  0.00  0.00    -0.090 HD
ENDBRANCH   5  18
BRANCH   3  22
ATOM     22  C   LIG d   1      -1.460  80.040 112.349  0.00  0.00     0.382 C 
ATOM     23  O   LIG d   1      -1.965  79.214 111.551  0.00  0.00    -0.241 OA
ATOM     24  O   LIG d   1      -1.738  79.971 113.561  0.00  0.00    -0.241 OA
ENDBRANCH   3  22
TORSDOF 7
ENDMDL
MODEL 7
REMARK VINA RESULT:      -5.3      3.496      5.423
REMARK  7 active torsions:
REMARK  status: ('A' for Active; 'I' for Inactive)
REMARK    1  A    between atoms: C_2  and  C_3 
REMARK    2  A    between atoms: C_3  and  O_6 
REMARK    3  A    between atoms: C_3  and  C_4 
REMARK    4  A    between atoms: C_7  and  O_6 
REMARK    5  A    between atoms: C_9  and  C_10 
REMARK    6  A    between atoms: N_15  and  C_14 
REMARK    7  A    between atoms: N_20  and  C_19 
REMARK       I    between atoms: C_22  and  N_20 
ROOT
ATOM      1  C   LIG d   1       2.761  84.570 110.735  0.00  0.00     0.161 C 
ATOM      2  C   LIG d   1       3.535  83.400 110.661  0.00  0.00     0.016 C 
ATOM      3  C   LIG d   1       3.436  82.467 109.603  0.00  0.00     0.038 C 
ATOM      4  C   LIG d   1       2.657  82.718 108.464  0.00  0.00     0.028 C 
ATOM      5  C   LIG d   1       1.476  83.645 108.730  0.00  0.00    -0.047 C 
ATOM      6  C   LIG d   1       1.986  84.916 109.446  0.00  0.00     0.091 C 
ENDROOT
BRANCH   1   7
ATOM      7  O   LIG d   1       3.589  85.679 111.136  0.00  0.00    -0.368 OA
BRANCH   7   8
ATOM      8  C   LIG d   1       3.180  86.379 112.336  0.00  0.00     0.119 C 
BRANCH   8   9
ATOM      9  C   LIG d   1       4.322  87.338 112.726  0.00  0.00     0.028 C 
ATOM     10  C   LIG d   1       3.808  88.618 113.405  0.00  0.00     0.006 C 
ENDBRANCH   8   9
BRANCH   8  11
ATOM     11  C   LIG d   1       3.035  85.418 113.520  0.00  0.00     0.028 C 
ATOM     12  C   LIG d   1       1.643  85.475 114.168  0.00  0.00     0.006 C 
ENDBRANCH   8  11
ENDBRANCH   7   8
ENDBRANCH   1   7
BRANCH   6  13
ATOM     13  N   LIG d   1       0.883  85.839 109.819  0.00  0.00    -0.311 N 
ATOM     14  C   LIG d   1      -0.132  85.488 110.607  0.00  0.00     0.210 C 
ATOM     15  C   LIG d   1      -1.173  86.586 110.849  0.00  0.00     0.109 C 
ATOM     16  O   LIG d   1      -0.252  84.382 111.156  0.00  0.00    -0.276 OA
ATOM     17  H   LIG d   1       0.917  86.766 109.444  0.00  0.00     0.149 HD
ENDBRANCH   6  13
BRANCH   5  18
ATOM     18  N   LIG d   1       0.833  83.932 107.433  0.00  0.00     0.381 N 
ATOM     19  H   LIG d   1       0.353  83.117 107.106  0.00  0.00    -0.090 HD
ATOM     20  H   LIG d   1       1.543  84.170 106.764  0.00  0.00    -0.090 HD
ATOM     21  H   LIG d   1       0.191  84.687 107.530  0.00  0.00    -0.090 HD
ENDBRANCH   5  18
BRANCH   3  22
ATOM     22  C   LIG d   1       4.090  81.248 109.698  0.00  0.00     0.382 C 
ATOM     23  O   LIG d   1       4.606  80.733 108.677  0.00  0.00    -0.241 OA
ATOM     24  O   LIG d   1       4.132  80.636 110.782  0.00  0.00    -0.241 OA
ENDBRANCH   3  22
TORSDOF 7
ENDMDL
MODEL 8
REMARK VINA RESULT:      -5.0     23.445     26.295
REMARK  7 active torsions:
REMARK  status: ('A' for Active; 'I' for Inactive)
REMARK    1  A    between atoms: C_2  and  C_3 
REMARK    2  A    between atoms: C_3  and  O_6 
REMARK    3  A    between atoms: C_3  and  C_4 
REMARK    4  A    between atoms: C_7  and  O_6 
REMARK    5  A    between atoms: C_9  and  C_10 
REMARK    6  A    between atoms: N_15  and  C_14 
REMARK    7  A    between atoms: N_20  and  C_19 
REMARK       I    between atoms: C_22  and  N_20 
ROOT
ATOM      1  C   LIG d   1     -25.512  85.204 113.919  0.00  0.00     0.161 C 
ATOM      2  C   LIG d   1     -24.439  86.103 113.799  0.00  0.00     0.016 C 
ATOM      3  C   LIG d   1     -23.091  85.740 114.023  0.00  0.00     0.038 C 
ATOM      4  C   LIG d   1     -22.707  84.408 114.235  0.00  0.00     0.028 C 
ATOM      5  C   LIG d   1     -23.804  83.554 114.862  0.00  0.00    -0.047 C 
ATOM      6  C   LIG d   1     -25.102  83.721 114.040  0.00  0.00     0.091 C 
ENDROOT
BRANCH   1   7
ATOM      7  O   LIG d   1     -26.424  85.383 112.818  0.00  0.00    -0.368 OA
BRANCH   7   8
ATOM      8  C   LIG d   1     -25.847  85.882 111.586  0.00  0.00     0.119 C 
BRANCH   8   9
ATOM      9  C   LIG d   1     -26.846  86.886 110.979  0.00  0.00     0.028 C 
ATOM     10  C   LIG d   1     -27.098  88.092 111.899  0.00  0.00     0.006 C 
ENDBRANCH   8   9
BRANCH   8  11
ATOM     11  C   LIG d   1     -25.709  84.767 110.544  0.00  0.00     0.028 C 
ATOM     12  C   LIG d   1     -25.624  85.303 109.106  0.00  0.00     0.006 C 
ENDBRANCH   8  11
ENDBRANCH   7   8
ENDBRANCH   1   7
BRANCH   6  13
ATOM     13  N   LIG d   1     -26.249  82.985 114.635  0.00  0.00    -0.311 N 
ATOM     14  C   LIG d   1     -27.165  82.347 113.910  0.00  0.00     0.210 C 
ATOM     15  C   LIG d   1     -28.274  81.669 114.721  0.00  0.00     0.109 C 
ATOM     16  O   LIG d   1     -27.147  82.249 112.674  0.00  0.00    -0.276 OA
ATOM     17  H   LIG d   1     -26.323  82.986 115.633  0.00  0.00     0.149 HD
ENDBRANCH   6  13
BRANCH   5  18
ATOM     18  N   LIG d   1     -23.319  82.162 114.900  0.00  0.00     0.381 N 
ATOM     19  H   LIG d   1     -23.083  81.910 115.839  0.00  0.00    -0.090 HD
ATOM     20  H   LIG d   1     -22.489  82.091 114.337  0.00  0.00    -0.090 HD
ATOM     21  H   LIG d   1     -24.020  81.546 114.550  0.00  0.00    -0.090 HD
ENDBRANCH   5  18
BRANCH   3  22
ATOM     22  C   LIG d   1     -22.114  86.723 114.075  0.00  0.00     0.382 C 
ATOM     23  O   LIG d   1     -21.067  86.603 113.393  0.00  0.00    -0.241 OA
ATOM     24  O   LIG d   1     -22.247  87.706 114.828  0.00  0.00    -0.241 OA
ENDBRANCH   3  22
TORSDOF 7
ENDMDL
MODEL 9
REMARK VINA RESULT:      -4.9     21.665     25.236
REMARK  7 active torsions:
REMARK  status: ('A' for Active; 'I' for Inactive)
REMARK    1  A    between atoms: C_2  and  C_3 
REMARK    2  A    between atoms: C_3  and  O_6 
REMARK    3  A    between atoms: C_3  and  C_4 
REMARK    4  A    between atoms: C_7  and  O_6 
REMARK    5  A    between atoms: C_9  and  C_10 
REMARK    6  A    between atoms: N_15  and  C_14 
REMARK    7  A    between atoms: N_20  and  C_19 
REMARK       I    between atoms: C_22  and  N_20 
ROOT
ATOM      1  C   LIG d   1     -16.938  64.726 113.315  0.00  0.00     0.161 C 
ATOM      2  C   LIG d   1     -17.299  63.693 114.195  0.00  0.00     0.016 C 
ATOM      3  C   LIG d   1     -16.921  63.663 115.557  0.00  0.00     0.038 C 
ATOM      4  C   LIG d   1     -16.278  64.747 116.172  0.00  0.00     0.028 C 
ATOM      5  C   LIG d   1     -15.451  65.588 115.206  0.00  0.00    -0.047 C 
ATOM      6  C   LIG d   1     -16.331  65.972 113.995  0.00  0.00     0.091 C 
ENDROOT
BRANCH   1   7
ATOM      7  O   LIG d   1     -18.072  65.099 112.507  0.00  0.00    -0.368 OA
BRANCH   7   8
ATOM      8  C   LIG d   1     -19.356  64.580 112.932  0.00  0.00     0.119 C 
BRANCH   8   9
ATOM      9  C   LIG d   1     -20.161  64.240 111.664  0.00  0.00     0.028 C 
ATOM     10  C   LIG d   1     -21.572  64.851 111.683  0.00  0.00     0.006 C 
ENDBRANCH   8   9
BRANCH   8  11
ATOM     11  C   LIG d   1     -20.176  65.651 113.658  0.00  0.00     0.028 C 
ATOM     12  C   LIG d   1     -20.315  65.376 115.164  0.00  0.00     0.006 C 
ENDBRANCH   8  11
ENDBRANCH   7   8
ENDBRANCH   1   7
BRANCH   6  13
ATOM     13  N   LIG d   1     -15.575  66.725 112.960  0.00  0.00    -0.311 N 
ATOM     14  C   LIG d   1     -15.491  68.054 112.936  0.00  0.00     0.210 C 
ATOM     15  C   LIG d   1     -14.678  68.629 111.772  0.00  0.00     0.109 C 
ATOM     16  O   LIG d   1     -15.985  68.810 113.786  0.00  0.00    -0.276 OA
ATOM     17  H   LIG d   1     -15.117  66.189 112.249  0.00  0.00     0.149 HD
ENDBRANCH   6  13
BRANCH   5  18
ATOM     18  N   LIG d   1     -14.950  66.759 115.950  0.00  0.00     0.381 N 
ATOM     19  H   LIG d   1     -15.403  66.814 116.841  0.00  0.00    -0.090 HD
ATOM     20  H   LIG d   1     -15.170  67.592 115.433  0.00  0.00    -0.090 HD
ATOM     21  H   LIG d   1     -13.964  66.688 116.075  0.00  0.00    -0.090 HD
ENDBRANCH   5  18
BRANCH   3  22
ATOM     22  C   LIG d   1     -17.151  62.521 116.309  0.00  0.00     0.382 C 
ATOM     23  O   LIG d   1     -16.231  62.037 117.013  0.00  0.00    -0.241 OA
ATOM     24  O   LIG d   1     -18.253  61.942 116.258  0.00  0.00    -0.241 OA
ENDBRANCH   3  22
TORSDOF 7
ENDMDL
