MODEL 1
REMARK VINA RESULT:      -5.6      0.000      0.000
REMARK  7 active torsions:
REMARK  status: ('A' for Active; 'I' for Inactive)
REMARK    1  A    between atoms: C_2  and  C_3 
REMARK    2  A    between atoms: C_3  and  O_6 
REMARK    3  A    between atoms: C_3  and  C_4 
REMARK    4  A    between atoms: C_7  and  O_6 
REMARK    5  A    between atoms: C_9  and  C_10 
REMARK    6  A    between atoms: N_15  and  C_14 
REMARK    7  A    between atoms: N_20  and  C_19 
REMARK       I    between atoms: C_22  and  N_20 
ROOT
ATOM      1  C   LIG d   1      -6.602  93.458 117.926  0.00  0.00     0.161 C 
ATOM      2  C   LIG d   1      -7.161  92.413 117.172  0.00  0.00     0.016 C 
ATOM      3  C   LIG d   1      -6.400  91.353 116.627  0.00  0.00     0.038 C 
ATOM      4  C   LIG d   1      -5.040  91.186 116.928  0.00  0.00     0.028 C 
ATOM      5  C   LIG d   1      -4.330  92.491 117.269  0.00  0.00    -0.047 C 
ATOM      6  C   LIG d   1      -5.138  93.233 118.359  0.00  0.00     0.091 C 
ENDROOT
BRANCH   1   7
ATOM      7  O   LIG d   1      -7.428  93.727 119.076  0.00  0.00    -0.368 OA
BRANCH   7   8
ATOM      8  C   LIG d   1      -8.749  94.257 118.802  0.00  0.00     0.119 C 
BRANCH   8   9
ATOM      9  C   LIG d   1      -8.588  95.753 118.469  0.00  0.00     0.028 C 
ATOM     10  C   LIG d   1      -7.746  96.500 119.517  0.00  0.00     0.006 C 
ENDBRANCH   8   9
BRANCH   8  11
ATOM     11  C   LIG d   1      -9.636  94.212 120.049  0.00  0.00     0.028 C 
ATOM     12  C   LIG d   1      -8.991  93.443 121.213  0.00  0.00     0.006 C 
ENDBRANCH   8  11
ENDBRANCH   7   8
ENDBRANCH   1   7
BRANCH   6  13
ATOM     13  N   LIG d   1      -4.557  94.560 118.690  0.00  0.00    -0.311 N 
ATOM     14  C   LIG d   1      -3.702  94.756 119.692  0.00  0.00     0.210 C 
ATOM     15  C   LIG d   1      -3.241  96.206 119.874  0.00  0.00     0.109 C 
ATOM     16  O   LIG d   1      -3.256  93.862 120.427  0.00  0.00    -0.276 OA
ATOM     17  H   LIG d   1      -4.841  95.336 118.125  0.00  0.00     0.149 HD
ENDBRANCH   6  13
BRANCH   5  18
ATOM     18  N   LIG d   1      -2.958  92.155 117.696  0.00  0.00     0.381 N 
ATOM     19  H   LIG d   1      -2.352  92.131 116.900  0.00  0.00    -0.090 HD
ATOM     20  H   LIG d   1      -2.963  91.242 118.116  0.00  0.00    -0.090 HD
ATOM     21  H   LIG d   1      -2.630  92.828 118.352  0.00  0.00    -0.090 HD
ENDBRANCH   5  18
BRANCH   3  22
ATOM     22  C   LIG d   1      -6.991  90.470 115.737  0.00  0.00     0.382 C 
ATOM     23  O   LIG d   1      -8.160  90.063 115.941  0.00  0.00    -0.241 OA
ATOM     24  O   LIG d   1      -6.354  90.039 114.757  0.00  0.00    -0.241 OA
ENDBRANCH   3  22
TORSDOF 7
ENDMDL
MODEL 2
REMARK VINA RESULT:      -5.5      2.121      4.361
REMARK  7 active torsions:
REMARK  status: ('A' for Active; 'I' for Inactive)
REMARK    1  A    between atoms: C_2  and  C_3 
REMARK    2  A    between atoms: C_3  and  O_6 
REMARK    3  A    between atoms: C_3  and  C_4 
REMARK    4  A    between atoms: C_7  and  O_6 
REMARK    5  A    between atoms: C_9  and  C_10 
REMARK    6  A    between atoms: N_15  and  C_14 
REMARK    7  A    between atoms: N_20  and  C_19 
REMARK       I    between atoms: C_22  and  N_20 
ROOT
ATOM      1  C   LIG d   1      -5.061  92.356 117.858  0.00  0.00     0.161 C 
ATOM      2  C   LIG d   1      -5.407  91.453 116.838  0.00  0.00     0.016 C 
ATOM      3  C   LIG d   1      -6.640  91.497 116.146  0.00  0.00     0.038 C 
ATOM      4  C   LIG d   1      -7.553  92.547 116.324  0.00  0.00     0.028 C 
ATOM      5  C   LIG d   1      -7.469  93.196 117.702  0.00  0.00    -0.047 C 
ATOM      6  C   LIG d   1      -5.998  93.575 117.989  0.00  0.00     0.091 C 
ENDROOT
BRANCH   1   7
ATOM      7  O   LIG d   1      -3.697  92.789 117.684  0.00  0.00    -0.368 OA
BRANCH   7   8
ATOM      8  C   LIG d   1      -2.727  92.222 118.598  0.00  0.00     0.119 C 
BRANCH   8   9
ATOM      9  C   LIG d   1      -1.728  93.337 118.964  0.00  0.00     0.028 C 
ATOM     10  C   LIG d   1      -2.248  94.736 118.591  0.00  0.00     0.006 C 
ENDBRANCH   8   9
BRANCH   8  11
ATOM     11  C   LIG d   1      -1.889  91.135 117.919  0.00  0.00     0.028 C 
ATOM     12  C   LIG d   1      -2.393  89.716 118.225  0.00  0.00     0.006 C 
ENDBRANCH   8  11
ENDBRANCH   7   8
ENDBRANCH   1   7
BRANCH   6  13
ATOM     13  N   LIG d   1      -5.813  94.140 119.351  0.00  0.00    -0.311 N 
ATOM     14  C   LIG d   1      -5.892  95.441 119.621  0.00  0.00     0.210 C 
ATOM     15  C   LIG d   1      -5.650  95.813 121.088  0.00  0.00     0.109 C 
ATOM     16  O   LIG d   1      -6.171  96.321 118.792  0.00  0.00    -0.276 OA
ATOM     17  H   LIG d   1      -5.614  93.494 120.089  0.00  0.00     0.149 HD
ENDBRANCH   6  13
BRANCH   5  18
ATOM     18  N   LIG d   1      -8.376  94.359 117.702  0.00  0.00     0.381 N 
ATOM     19  H   LIG d   1      -8.076  95.023 117.016  0.00  0.00    -0.090 HD
ATOM     20  H   LIG d   1      -8.339  94.800 118.604  0.00  0.00    -0.090 HD
ATOM     21  H   LIG d   1      -9.307  94.065 117.506  0.00  0.00    -0.090 HD
ENDBRANCH   5  18
BRANCH   3  22
ATOM     22  C   LIG d   1      -6.986  90.460 115.293  0.00  0.00     0.382 C 
ATOM     23  O   LIG d   1      -8.193  90.158 115.131  0.00  0.00    -0.241 OA
ATOM     24  O   LIG d   1      -6.104  89.794 114.718  0.00  0.00    -0.241 OA
ENDBRANCH   3  22
TORSDOF 7
ENDMDL
MODEL 3
REMARK VINA RESULT:      -5.2      1.387      1.531
REMARK  7 active torsions:
REMARK  status: ('A' for Active; 'I' for Inactive)
REMARK    1  A    between atoms: C_2  and  C_3 
REMARK    2  A    between atoms: C_3  and  O_6 
REMARK    3  A    between atoms: C_3  and  C_4 
REMARK    4  A    between atoms: C_7  and  O_6 
REMARK    5  A    between atoms: C_9  and  C_10 
REMARK    6  A    between atoms: N_15  and  C_14 
REMARK    7  A    between atoms: N_20  and  C_19 
REMARK       I    between atoms: C_22  and  N_20 
ROOT
ATOM      1  C   LIG d   1      -6.187  92.873 118.436  0.00  0.00     0.161 C 
ATOM      2  C   LIG d   1      -6.961  92.387 117.370  0.00  0.00     0.016 C 
ATOM      3  C   LIG d   1      -6.458  91.516 116.376  0.00  0.00     0.038 C 
ATOM      4  C   LIG d   1      -5.179  90.947 116.468  0.00  0.00     0.028 C 
ATOM      5  C   LIG d   1      -4.191  91.802 117.254  0.00  0.00    -0.047 C 
ATOM      6  C   LIG d   1      -4.822  92.176 118.614  0.00  0.00     0.091 C 
ENDROOT
BRANCH   1   7
ATOM      7  O   LIG d   1      -6.946  92.809 119.660  0.00  0.00    -0.368 OA
BRANCH   7   8
ATOM      8  C   LIG d   1      -8.186  93.557 119.681  0.00  0.00     0.119 C 
BRANCH   8   9
ATOM      9  C   LIG d   1      -7.832  95.045 119.500  0.00  0.00     0.028 C 
ATOM     10  C   LIG d   1      -8.704  95.730 118.434  0.00  0.00     0.006 C 
ENDBRANCH   8   9
BRANCH   8  11
ATOM     11  C   LIG d   1      -8.869  93.466 121.049  0.00  0.00     0.028 C 
ATOM     12  C   LIG d   1      -7.974  92.823 122.120  0.00  0.00     0.006 C 
ENDBRANCH   8  11
ENDBRANCH   7   8
ENDBRANCH   1   7
BRANCH   6  13
ATOM     13  N   LIG d   1      -3.955  93.082 119.412  0.00  0.00    -0.311 N 
ATOM     14  C   LIG d   1      -3.107  92.652 120.345  0.00  0.00     0.210 C 
ATOM     15  C   LIG d   1      -2.322  93.754 121.063  0.00  0.00     0.109 C 
ATOM     16  O   LIG d   1      -2.906  91.460 120.623  0.00  0.00    -0.276 OA
ATOM     17  H   LIG d   1      -4.030  94.063 119.229  0.00  0.00     0.149 HD
ENDBRANCH   6  13
BRANCH   5  18
ATOM     18  N   LIG d   1      -2.942  91.029 117.388  0.00  0.00     0.381 N 
ATOM     19  H   LIG d   1      -2.816  90.752 118.341  0.00  0.00    -0.090 HD
ATOM     20  H   LIG d   1      -2.168  91.614 117.125  0.00  0.00    -0.090 HD
ATOM     21  H   LIG d   1      -2.974  90.225 116.802  0.00  0.00    -0.090 HD
ENDBRANCH   5  18
BRANCH   3  22
ATOM     22  C   LIG d   1      -7.225  91.236 115.255  0.00  0.00     0.382 C 
ATOM     23  O   LIG d   1      -7.863  92.155 114.688  0.00  0.00    -0.241 OA
ATOM     24  O   LIG d   1      -7.321  90.070 114.830  0.00  0.00    -0.241 OA
ENDBRANCH   3  22
TORSDOF 7
ENDMDL
MODEL 4
REMARK VINA RESULT:      -5.2      2.400      4.988
REMARK  7 active torsions:
REMARK  status: ('A' for Active; 'I' for Inactive)
REMARK    1  A    between atoms: C_2  and  C_3 
REMARK    2  A    between atoms: C_3  and  O_6 
REMARK    3  A    between atoms: C_3  and  C_4 
REMARK    4  A    between atoms: C_7  and  O_6 
REMARK    5  A    between atoms: C_9  and  C_10 
REMARK    6  A    between atoms: N_15  and  C_14 
REMARK    7  A    between atoms: N_20  and  C_19 
REMARK       I    between atoms: C_22  and  N_20 
ROOT
ATOM      1  C   LIG d   1      -4.192  91.586 117.677  0.00  0.00     0.161 C 
ATOM      2  C   LIG d   1      -5.010  90.912 116.755  0.00  0.00     0.016 C 
ATOM      3  C   LIG d   1      -6.260  91.406 116.316  0.00  0.00     0.038 C 
ATOM      4  C   LIG d   1      -6.711  92.690 116.657  0.00  0.00     0.028 C 
ATOM      5  C   LIG d   1      -6.155  93.194 117.985  0.00  0.00    -0.047 C 
ATOM      6  C   LIG d   1      -4.617  93.040 117.976  0.00  0.00     0.091 C 
ENDROOT
BRANCH   1   7
ATOM      7  O   LIG d   1      -2.821  91.545 117.236  0.00  0.00    -0.368 OA
BRANCH   7   8
ATOM      8  C   LIG d   1      -1.962  90.594 117.912  0.00  0.00     0.119 C 
BRANCH   8   9
ATOM      9  C   LIG d   1      -2.785  89.952 119.046  0.00  0.00     0.028 C 
ATOM     10  C   LIG d   1      -2.460  88.460 119.235  0.00  0.00     0.006 C 
ENDBRANCH   8   9
BRANCH   8  11
ATOM     11  C   LIG d   1      -0.792  91.295 118.607  0.00  0.00     0.028 C 
ATOM     12  C   LIG d   1      -0.167  92.406 117.748  0.00  0.00     0.006 C 
ENDBRANCH   8  11
ENDBRANCH   7   8
ENDBRANCH   1   7
BRANCH   6  13
ATOM     13  N   LIG d   1      -4.000  93.431 119.270  0.00  0.00    -0.311 N 
ATOM     14  C   LIG d   1      -2.985  94.288 119.369  0.00  0.00     0.210 C 
ATOM     15  C   LIG d   1      -2.487  94.538 120.795  0.00  0.00     0.109 C 
ATOM     16  O   LIG d   1      -2.472  94.890 118.413  0.00  0.00    -0.276 OA
ATOM     17  H   LIG d   1      -4.376  93.014 120.099  0.00  0.00     0.149 HD
ENDBRANCH   6  13
BRANCH   5  18
ATOM     18  N   LIG d   1      -6.595  94.592 118.150  0.00  0.00     0.381 N 
ATOM     19  H   LIG d   1      -7.427  94.622 118.705  0.00  0.00    -0.090 HD
ATOM     20  H   LIG d   1      -6.805  94.976 117.246  0.00  0.00    -0.090 HD
ATOM     21  H   LIG d   1      -5.876  95.126 118.587  0.00  0.00    -0.090 HD
ENDBRANCH   5  18
BRANCH   3  22
ATOM     22  C   LIG d   1      -7.091  90.596 115.557  0.00  0.00     0.382 C 
ATOM     23  O   LIG d   1      -6.623  89.951 114.588  0.00  0.00    -0.241 OA
ATOM     24  O   LIG d   1      -8.311  90.536 115.803  0.00  0.00    -0.241 OA
ENDBRANCH   3  22
TORSDOF 7
ENDMDL
MODEL 5
REMARK VINA RESULT:      -4.9     12.670     15.136
REMARK  7 active torsions:
REMARK  status: ('A' for Active; 'I' for Inactive)
REMARK    1  A    between atoms: C_2  and  C_3 
REMARK    2  A    between atoms: C_3  and  O_6 
REMARK    3  A    between atoms: C_3  and  C_4 
REMARK    4  A    between atoms: C_7  and  O_6 
REMARK    5  A    between atoms: C_9  and  C_10 
REMARK    6  A    between atoms: N_15  and  C_14 
REMARK    7  A    between atoms: N_20  and  C_19 
REMARK       I    between atoms: C_22  and  N_20 
ROOT
ATOM      1  C   LIG d   1      -7.743  78.969 118.285  0.00  0.00     0.161 C 
ATOM      2  C   LIG d   1      -6.758  78.576 117.364  0.00  0.00     0.016 C 
ATOM      3  C   LIG d   1      -6.666  77.269 116.834  0.00  0.00     0.038 C 
ATOM      4  C   LIG d   1      -7.651  76.300 117.075  0.00  0.00     0.028 C 
ATOM      5  C   LIG d   1      -8.385  76.498 118.396  0.00  0.00    -0.047 C 
ATOM      6  C   LIG d   1      -8.892  77.957 118.474  0.00  0.00     0.091 C 
ENDROOT
BRANCH   1   7
ATOM      7  O   LIG d   1      -8.269  80.260 117.918  0.00  0.00    -0.368 OA
BRANCH   7   8
ATOM      8  C   LIG d   1      -8.118  81.313 118.901  0.00  0.00     0.119 C 
BRANCH   8   9
ATOM      9  C   LIG d   1      -9.512  81.921 119.147  0.00  0.00     0.028 C 
ATOM     10  C   LIG d   1     -10.283  82.171 117.840  0.00  0.00     0.006 C 
ENDBRANCH   8   9
BRANCH   8  11
ATOM     11  C   LIG d   1      -7.264  82.464 118.359  0.00  0.00     0.028 C 
ATOM     12  C   LIG d   1      -6.925  83.511 119.431  0.00  0.00     0.006 C 
ENDBRANCH   8  11
ENDBRANCH   7   8
ENDBRANCH   1   7
BRANCH   6  13
ATOM     13  N   LIG d   1      -9.549  78.259 119.773  0.00  0.00    -0.311 N 
ATOM     14  C   LIG d   1     -10.839  78.028 120.013  0.00  0.00     0.210 C 
ATOM     15  C   LIG d   1     -11.319  78.433 121.411  0.00  0.00     0.109 C 
ATOM     16  O   LIG d   1     -11.623  77.497 119.213  0.00  0.00    -0.276 OA
ATOM     17  H   LIG d   1      -8.979  78.664 120.489  0.00  0.00     0.149 HD
ENDBRANCH   6  13
BRANCH   5  18
ATOM     18  N   LIG d   1      -9.473  75.504 118.455  0.00  0.00     0.381 N 
ATOM     19  H   LIG d   1      -9.507  75.093 119.367  0.00  0.00    -0.090 HD
ATOM     20  H   LIG d   1      -9.286  74.777 117.788  0.00  0.00    -0.090 HD
ATOM     21  H   LIG d   1     -10.345  75.939 118.247  0.00  0.00    -0.090 HD
ENDBRANCH   5  18
BRANCH   3  22
ATOM     22  C   LIG d   1      -5.557  76.909 116.084  0.00  0.00     0.382 C 
ATOM     23  O   LIG d   1      -5.421  75.723 115.696  0.00  0.00    -0.241 OA
ATOM     24  O   LIG d   1      -4.669  77.744 115.828  0.00  0.00    -0.241 OA
ENDBRANCH   3  22
TORSDOF 7
ENDMDL
MODEL 6
REMARK VINA RESULT:      -4.9     15.323     17.710
REMARK  7 active torsions:
REMARK  status: ('A' for Active; 'I' for Inactive)
REMARK    1  A    between atoms: C_2  and  C_3 
REMARK    2  A    between atoms: C_3  and  O_6 
REMARK    3  A    between atoms: C_3  and  C_4 
REMARK    4  A    between atoms: C_7  and  O_6 
REMARK    5  A    between atoms: C_9  and  C_10 
REMARK    6  A    between atoms: N_15  and  C_14 
REMARK    7  A    between atoms: N_20  and  C_19 
REMARK       I    between atoms: C_22  and  N_20 
ROOT
ATOM      1  C   LIG d   1      -2.902  76.811 117.420  0.00  0.00     0.161 C 
ATOM      2  C   LIG d   1      -3.025  77.969 116.633  0.00  0.00     0.016 C 
ATOM      3  C   LIG d   1      -2.166  78.269 115.551  0.00  0.00     0.038 C 
ATOM      4  C   LIG d   1      -1.213  77.351 115.084  0.00  0.00     0.028 C 
ATOM      5  C   LIG d   1      -0.719  76.391 116.161  0.00  0.00    -0.047 C 
ATOM      6  C   LIG d   1      -1.939  75.746 116.857  0.00  0.00     0.091 C 
ENDROOT
BRANCH   1   7
ATOM      7  O   LIG d   1      -4.204  76.238 117.652  0.00  0.00    -0.368 OA
BRANCH   7   8
ATOM      8  C   LIG d   1      -5.219  76.542 116.664  0.00  0.00     0.119 C 
BRANCH   8   9
ATOM      9  C   LIG d   1      -6.472  77.025 117.421  0.00  0.00     0.028 C 
ATOM     10  C   LIG d   1      -7.766  76.401 116.872  0.00  0.00     0.006 C 
ENDBRANCH   8   9
BRANCH   8  11
ATOM     11  C   LIG d   1      -5.661  75.282 115.913  0.00  0.00     0.028 C 
ATOM     12  C   LIG d   1      -4.951  75.116 114.560  0.00  0.00     0.006 C 
ENDBRANCH   8  11
ENDBRANCH   7   8
ENDBRANCH   1   7
BRANCH   6  13
ATOM     13  N   LIG d   1      -1.546  74.855 117.980  0.00  0.00    -0.311 N 
ATOM     14  C   LIG d   1      -1.272  73.561 117.828  0.00  0.00     0.210 C 
ATOM     15  C   LIG d   1      -0.907  72.822 119.120  0.00  0.00     0.109 C 
ATOM     16  O   LIG d   1      -1.265  72.962 116.742  0.00  0.00    -0.276 OA
ATOM     17  H   LIG d   1      -1.497  75.266 118.892  0.00  0.00     0.149 HD
ENDBRANCH   6  13
BRANCH   5  18
ATOM     18  N   LIG d   1       0.163  75.405 115.508  0.00  0.00     0.381 N 
ATOM     19  H   LIG d   1       0.027  74.503 115.921  0.00  0.00    -0.090 HD
ATOM     20  H   LIG d   1       1.119  75.677 115.653  0.00  0.00    -0.090 HD
ATOM     21  H   LIG d   1      -0.034  75.365 114.532  0.00  0.00    -0.090 HD
ENDBRANCH   5  18
BRANCH   3  22
ATOM     22  C   LIG d   1      -2.229  79.516 114.949  0.00  0.00     0.382 C 
ATOM     23  O   LIG d   1      -1.172  80.131 114.669  0.00  0.00    -0.241 OA
ATOM     24  O   LIG d   1      -3.330  80.053 114.723  0.00  0.00    -0.241 OA
ENDBRANCH   3  22
TORSDOF 7
ENDMDL
MODEL 7
REMARK VINA RESULT:      -4.8     12.291     15.057
REMARK  7 active torsions:
REMARK  status: ('A' for Active; 'I' for Inactive)
REMARK    1  A    between atoms: C_2  and  C_3 
REMARK    2  A    between atoms: C_3  and  O_6 
REMARK    3  A    between atoms: C_3  and  C_4 
REMARK    4  A    between atoms: C_7  and  O_6 
REMARK    5  A    between atoms: C_9  and  C_10 
REMARK    6  A    between atoms: N_15  and  C_14 
REMARK    7  A    between atoms: N_20  and  C_19 
REMARK       I    between atoms: C_22  and  N_20 
ROOT
ATOM      1  C   LIG d   1      -8.294  78.960 118.538  0.00  0.00     0.161 C 
ATOM      2  C   LIG d   1      -9.165  80.061 118.587  0.00  0.00     0.016 C 
ATOM      3  C   LIG d   1      -8.754  81.391 118.339  0.00  0.00     0.038 C 
ATOM      4  C   LIG d   1      -7.465  81.694 117.874  0.00  0.00     0.028 C 
ATOM      5  C   LIG d   1      -6.414  80.673 118.296  0.00  0.00    -0.047 C 
ATOM      6  C   LIG d   1      -6.910  79.258 117.924  0.00  0.00     0.091 C 
ENDROOT
BRANCH   1   7
ATOM      7  O   LIG d   1      -8.926  77.867 117.843  0.00  0.00    -0.368 OA
BRANCH   7   8
ATOM      8  C   LIG d   1      -9.150  76.664 118.618  0.00  0.00     0.119 C 
BRANCH   8   9
ATOM      9  C   LIG d   1     -10.537  76.115 118.231  0.00  0.00     0.028 C 
ATOM     10  C   LIG d   1     -10.457  74.726 117.575  0.00  0.00     0.006 C 
ENDBRANCH   8   9
BRANCH   8  11
ATOM     11  C   LIG d   1      -9.241  76.973 120.115  0.00  0.00     0.028 C 
ATOM     12  C   LIG d   1      -8.194  76.213 120.945  0.00  0.00     0.006 C 
ENDBRANCH   8  11
ENDBRANCH   7   8
ENDBRANCH   1   7
BRANCH   6  13
ATOM     13  N   LIG d   1      -5.978  78.193 118.378  0.00  0.00    -0.311 N 
ATOM     14  C   LIG d   1      -5.031  77.668 117.603  0.00  0.00     0.210 C 
ATOM     15  C   LIG d   1      -4.193  76.567 118.261  0.00  0.00     0.109 C 
ATOM     16  O   LIG d   1      -4.784  78.031 116.443  0.00  0.00    -0.276 OA
ATOM     17  H   LIG d   1      -6.088  77.860 119.316  0.00  0.00     0.149 HD
ENDBRANCH   6  13
BRANCH   5  18
ATOM     18  N   LIG d   1      -5.148  81.036 117.630  0.00  0.00     0.381 N 
ATOM     19  H   LIG d   1      -4.391  80.527 118.042  0.00  0.00    -0.090 HD
ATOM     20  H   LIG d   1      -4.979  82.017 117.765  0.00  0.00    -0.090 HD
ATOM     21  H   LIG d   1      -5.205  80.832 116.657  0.00  0.00    -0.090 HD
ENDBRANCH   5  18
BRANCH   3  22
ATOM     22  C   LIG d   1      -9.625  82.439 118.595  0.00  0.00     0.382 C 
ATOM     23  O   LIG d   1      -9.464  83.153 119.614  0.00  0.00    -0.241 OA
ATOM     24  O   LIG d   1     -10.595  82.652 117.843  0.00  0.00    -0.241 OA
ENDBRANCH   3  22
TORSDOF 7
ENDMDL
MODEL 8
REMARK VINA RESULT:      -4.6     10.820     12.924
REMARK  7 active torsions:
REMARK  status: ('A' for Active; 'I' for Inactive)
REMARK    1  A    between atoms: C_2  and  C_3 
REMARK    2  A    between atoms: C_3  and  O_6 
REMARK    3  A    between atoms: C_3  and  C_4 
REMARK    4  A    between atoms: C_7  and  O_6 
REMARK    5  A    between atoms: C_9  and  C_10 
REMARK    6  A    between atoms: N_15  and  C_14 
REMARK    7  A    between atoms: N_20  and  C_19 
REMARK       I    between atoms: C_22  and  N_20 
ROOT
ATOM      1  C   LIG d   1      -8.688  81.761 120.937  0.00  0.00     0.161 C 
ATOM      2  C   LIG d   1      -9.054  80.465 120.537  0.00  0.00     0.016 C 
ATOM      3  C   LIG d   1     -10.265  79.845 120.921  0.00  0.00     0.038 C 
ATOM      4  C   LIG d   1     -11.268  80.542 121.613  0.00  0.00     0.028 C 
ATOM      5  C   LIG d   1     -10.731  81.684 122.469  0.00  0.00    -0.047 C 
ATOM      6  C   LIG d   1      -9.817  82.577 121.599  0.00  0.00     0.091 C 
ENDROOT
BRANCH   1   7
ATOM      7  O   LIG d   1      -8.140  82.481 119.815  0.00  0.00    -0.368 OA
BRANCH   7   8
ATOM      8  C   LIG d   1      -8.169  81.794 118.540  0.00  0.00     0.119 C 
BRANCH   8   9
ATOM      9  C   LIG d   1      -6.737  81.808 117.973  0.00  0.00     0.028 C 
ATOM     10  C   LIG d   1      -6.109  80.405 117.927  0.00  0.00     0.006 C 
ENDBRANCH   8   9
BRANCH   8  11
ATOM     11  C   LIG d   1      -9.018  82.555 117.517  0.00  0.00     0.028 C 
ATOM     12  C   LIG d   1     -10.524  82.291 117.678  0.00  0.00     0.006 C 
ENDBRANCH   8  11
ENDBRANCH   7   8
ENDBRANCH   1   7
BRANCH   6  13
ATOM     13  N   LIG d   1      -9.183  83.671 122.380  0.00  0.00    -0.311 N 
ATOM     14  C   LIG d   1      -9.671  84.909 122.437  0.00  0.00     0.210 C 
ATOM     15  C   LIG d   1      -8.852  85.888 123.284  0.00  0.00     0.109 C 
ATOM     16  O   LIG d   1     -10.722  85.281 121.894  0.00  0.00    -0.276 OA
ATOM     17  H   LIG d   1      -8.343  83.449 122.877  0.00  0.00     0.149 HD
ENDBRANCH   6  13
BRANCH   5  18
ATOM     18  N   LIG d   1     -11.890  82.409 123.022  0.00  0.00     0.381 N 
ATOM     19  H   LIG d   1     -12.398  82.852 122.282  0.00  0.00    -0.090 HD
ATOM     20  H   LIG d   1     -11.559  83.122 123.648  0.00  0.00    -0.090 HD
ATOM     21  H   LIG d   1     -12.486  81.778 123.512  0.00  0.00    -0.090 HD
ENDBRANCH   5  18
BRANCH   3  22
ATOM     22  C   LIG d   1     -10.467  78.501 120.648  0.00  0.00     0.382 C 
ATOM     23  O   LIG d   1     -10.914  78.149 119.530  0.00  0.00    -0.241 OA
ATOM     24  O   LIG d   1     -10.248  77.639 121.521  0.00  0.00    -0.241 OA
ENDBRANCH   3  22
TORSDOF 7
ENDMDL
MODEL 9
REMARK VINA RESULT:      -4.6     12.848     15.148
REMARK  7 active torsions:
REMARK  status: ('A' for Active; 'I' for Inactive)
REMARK    1  A    between atoms: C_2  and  C_3 
REMARK    2  A    between atoms: C_3  and  O_6 
REMARK    3  A    between atoms: C_3  and  C_4 
REMARK    4  A    between atoms: C_7  and  O_6 
REMARK    5  A    between atoms: C_9  and  C_10 
REMARK    6  A    between atoms: N_15  and  C_14 
REMARK    7  A    between atoms: N_20  and  C_19 
REMARK       I    between atoms: C_22  and  N_20 
ROOT
ATOM      1  C   LIG d   1      -8.192  78.616 118.541  0.00  0.00     0.161 C 
ATOM      2  C   LIG d   1      -9.377  77.877 118.698  0.00  0.00     0.016 C 
ATOM      3  C   LIG d   1      -9.576  76.597 118.133  0.00  0.00     0.038 C 
ATOM      4  C   LIG d   1      -8.540  75.899 117.493  0.00  0.00     0.028 C 
ATOM      5  C   LIG d   1      -7.487  76.812 116.874  0.00  0.00    -0.047 C 
ATOM      6  C   LIG d   1      -7.011  77.825 117.940  0.00  0.00     0.091 C 
ENDROOT
BRANCH   1   7
ATOM      7  O   LIG d   1      -7.812  79.204 119.800  0.00  0.00    -0.368 OA
BRANCH   7   8
ATOM      8  C   LIG d   1      -7.724  80.650 119.828  0.00  0.00     0.119 C 
BRANCH   8   9
ATOM      9  C   LIG d   1      -8.643  81.148 120.961  0.00  0.00     0.028 C 
ATOM     10  C   LIG d   1      -9.520  82.334 120.526  0.00  0.00     0.006 C 
ENDBRANCH   8   9
BRANCH   8  11
ATOM     11  C   LIG d   1      -8.290  81.268 118.546  0.00  0.00     0.028 C 
ATOM     12  C   LIG d   1      -7.274  82.157 117.814  0.00  0.00     0.006 C 
ENDBRANCH   8  11
ENDBRANCH   7   8
ENDBRANCH   1   7
BRANCH   6  13
ATOM     13  N   LIG d   1      -6.042  78.810 117.394  0.00  0.00    -0.311 N 
ATOM     14  C   LIG d   1      -4.721  78.653 117.461  0.00  0.00     0.210 C 
ATOM     15  C   LIG d   1      -3.902  79.797 116.854  0.00  0.00     0.109 C 
ATOM     16  O   LIG d   1      -4.150  77.661 117.937  0.00  0.00    -0.276 OA
ATOM     17  H   LIG d   1      -6.420  79.631 116.962  0.00  0.00     0.149 HD
ENDBRANCH   6  13
BRANCH   5  18
ATOM     18  N   LIG d   1      -6.400  75.956 116.363  0.00  0.00     0.381 N 
ATOM     19  H   LIG d   1      -6.204  75.229 117.021  0.00  0.00    -0.090 HD
ATOM     20  H   LIG d   1      -5.571  76.514 116.254  0.00  0.00    -0.090 HD
ATOM     21  H   LIG d   1      -6.661  75.560 115.487  0.00  0.00    -0.090 HD
ENDBRANCH   5  18
BRANCH   3  22
ATOM     22  C   LIG d   1     -10.835  76.018 118.170  0.00  0.00     0.382 C 
ATOM     23  O   LIG d   1     -11.006  74.858 117.721  0.00  0.00    -0.241 OA
ATOM     24  O   LIG d   1     -11.812  76.656 118.606  0.00  0.00    -0.241 OA
ENDBRANCH   3  22
TORSDOF 7
ENDMDL
