MODEL 1
REMARK VINA RESULT:      -6.3      0.000      0.000
REMARK  7 active torsions:
REMARK  status: ('A' for Active; 'I' for Inactive)
REMARK    1  A    between atoms: C_2  and  C_3 
REMARK    2  A    between atoms: C_3  and  O_6 
REMARK    3  A    between atoms: C_3  and  C_4 
REMARK    4  A    between atoms: C_7  and  O_6 
REMARK    5  A    between atoms: C_9  and  C_10 
REMARK    6  A    between atoms: N_15  and  C_14 
REMARK    7  A    between atoms: N_20  and  C_19 
REMARK       I    between atoms: C_22  and  N_20 
ROOT
ATOM      1  C   LIG d   1       2.183  83.393 109.857  0.00  0.00     0.161 C 
ATOM      2  C   LIG d   1       2.446  84.556 110.600  0.00  0.00     0.016 C 
ATOM      3  C   LIG d   1       1.675  84.958 111.714  0.00  0.00     0.038 C 
ATOM      4  C   LIG d   1       0.674  84.139 112.258  0.00  0.00     0.028 C 
ATOM      5  C   LIG d   1       0.043  83.197 111.239  0.00  0.00    -0.047 C 
ATOM      6  C   LIG d   1       1.165  82.430 110.503  0.00  0.00     0.091 C 
ENDROOT
BRANCH   1   7
ATOM      7  O   LIG d   1       3.417  82.703 109.577  0.00  0.00    -0.368 OA
BRANCH   7   8
ATOM      8  C   LIG d   1       3.764  81.625 110.480  0.00  0.00     0.119 C 
BRANCH   8   9
ATOM      9  C   LIG d   1       4.956  82.100 111.333  0.00  0.00     0.028 C 
ATOM     10  C   LIG d   1       4.582  82.284 112.814  0.00  0.00     0.006 C 
ENDBRANCH   8   9
BRANCH   8  11
ATOM     11  C   LIG d   1       4.275  80.400 109.716  0.00  0.00     0.028 C 
ATOM     12  C   LIG d   1       3.859  80.404 108.237  0.00  0.00     0.006 C 
ENDBRANCH   8  11
ENDBRANCH   7   8
ENDBRANCH   1   7
BRANCH   6  13
ATOM     13  N   LIG d   1       0.638  81.547 109.430  0.00  0.00    -0.311 N 
ATOM     14  C   LIG d   1       0.464  80.235 109.579  0.00  0.00     0.210 C 
ATOM     15  C   LIG d   1      -0.071  79.509 108.341  0.00  0.00     0.109 C 
ATOM     16  O   LIG d   1       0.672  79.609 110.629  0.00  0.00    -0.276 OA
ATOM     17  H   LIG d   1       0.414  81.978 108.554  0.00  0.00     0.149 HD
ENDBRANCH   6  13
BRANCH   5  18
ATOM     18  N   LIG d   1      -0.883  82.309 111.967  0.00  0.00     0.381 N 
ATOM     19  H   LIG d   1      -0.525  81.374 111.968  0.00  0.00    -0.090 HD
ATOM     20  H   LIG d   1      -1.770  82.307 111.496  0.00  0.00    -0.090 HD
ATOM     21  H   LIG d   1      -0.997  82.629 112.904  0.00  0.00    -0.090 HD
ENDBRANCH   5  18
BRANCH   3  22
ATOM     22  C   LIG d   1       1.876  86.212 112.273  0.00  0.00     0.382 C 
ATOM     23  O   LIG d   1       1.847  86.354 113.519  0.00  0.00    -0.241 OA
ATOM     24  O   LIG d   1       2.042  87.208 111.545  0.00  0.00    -0.241 OA
ENDBRANCH   3  22
TORSDOF 7
ENDMDL
MODEL 2
REMARK VINA RESULT:      -6.2      2.547      4.962
REMARK  7 active torsions:
REMARK  status: ('A' for Active; 'I' for Inactive)
REMARK    1  A    between atoms: C_2  and  C_3 
REMARK    2  A    between atoms: C_3  and  O_6 
REMARK    3  A    between atoms: C_3  and  C_4 
REMARK    4  A    between atoms: C_7  and  O_6 
REMARK    5  A    between atoms: C_9  and  C_10 
REMARK    6  A    between atoms: N_15  and  C_14 
REMARK    7  A    between atoms: N_20  and  C_19 
REMARK       I    between atoms: C_22  and  N_20 
ROOT
ATOM      1  C   LIG d   1       0.323  82.256 111.236  0.00  0.00     0.161 C 
ATOM      2  C   LIG d   1      -0.809  82.069 112.047  0.00  0.00     0.016 C 
ATOM      3  C   LIG d   1      -1.382  80.802 112.304  0.00  0.00     0.038 C 
ATOM      4  C   LIG d   1      -0.766  79.612 111.888  0.00  0.00     0.028 C 
ATOM      5  C   LIG d   1       0.098  79.781 110.643  0.00  0.00    -0.047 C 
ATOM      6  C   LIG d   1       1.073  80.960 110.864  0.00  0.00     0.091 C 
ENDROOT
BRANCH   1   7
ATOM      7  O   LIG d   1       1.222  83.193 111.861  0.00  0.00    -0.368 OA
BRANCH   7   8
ATOM      8  C   LIG d   1       1.009  84.590 111.542  0.00  0.00     0.119 C 
BRANCH   8   9
ATOM      9  C   LIG d   1       0.540  84.664 110.076  0.00  0.00     0.028 C 
ATOM     10  C   LIG d   1      -0.745  85.494 109.912  0.00  0.00     0.006 C 
ENDBRANCH   8   9
BRANCH   8  11
ATOM     11  C   LIG d   1       2.321  85.379 111.588  0.00  0.00     0.028 C 
ATOM     12  C   LIG d   1       3.384  84.824 110.627  0.00  0.00     0.006 C 
ENDBRANCH   8  11
ENDBRANCH   7   8
ENDBRANCH   1   7
BRANCH   6  13
ATOM     13  N   LIG d   1       1.898  81.247 109.662  0.00  0.00    -0.311 N 
ATOM     14  C   LIG d   1       3.229  81.284 109.678  0.00  0.00     0.210 C 
ATOM     15  C   LIG d   1       3.883  81.618 108.334  0.00  0.00     0.109 C 
ATOM     16  O   LIG d   1       3.932  81.041 110.671  0.00  0.00    -0.276 OA
ATOM     17  H   LIG d   1       1.410  81.425 108.806  0.00  0.00     0.149 HD
ENDBRANCH   6  13
BRANCH   5  18
ATOM     18  N   LIG d   1       0.787  78.499 110.401  0.00  0.00     0.381 N 
ATOM     19  H   LIG d   1       0.259  77.750 110.802  0.00  0.00    -0.090 HD
ATOM     20  H   LIG d   1       1.687  78.524 110.847  0.00  0.00    -0.090 HD
ATOM     21  H   LIG d   1       0.897  78.350 109.422  0.00  0.00    -0.090 HD
ENDBRANCH   5  18
BRANCH   3  22
ATOM     22  C   LIG d   1      -2.605  80.719 112.951  0.00  0.00     0.382 C 
ATOM     23  O   LIG d   1      -2.774  79.878 113.867  0.00  0.00    -0.241 OA
ATOM     24  O   LIG d   1      -3.555  81.445 112.602  0.00  0.00    -0.241 OA
ENDBRANCH   3  22
TORSDOF 7
ENDMDL
MODEL 3
REMARK VINA RESULT:      -6.2      2.323      5.375
REMARK  7 active torsions:
REMARK  status: ('A' for Active; 'I' for Inactive)
REMARK    1  A    between atoms: C_2  and  C_3 
REMARK    2  A    between atoms: C_3  and  O_6 
REMARK    3  A    between atoms: C_3  and  C_4 
REMARK    4  A    between atoms: C_7  and  O_6 
REMARK    5  A    between atoms: C_9  and  C_10 
REMARK    6  A    between atoms: N_15  and  C_14 
REMARK    7  A    between atoms: N_20  and  C_19 
REMARK       I    between atoms: C_22  and  N_20 
ROOT
ATOM      1  C   LIG d   1       0.880  81.093 110.802  0.00  0.00     0.161 C 
ATOM      2  C   LIG d   1       0.804  79.779 110.311  0.00  0.00     0.016 C 
ATOM      3  C   LIG d   1      -0.165  78.842 110.740  0.00  0.00     0.038 C 
ATOM      4  C   LIG d   1      -1.224  79.206 111.584  0.00  0.00     0.028 C 
ATOM      5  C   LIG d   1      -0.895  80.383 112.497  0.00  0.00    -0.047 C 
ATOM      6  C   LIG d   1      -0.335  81.541 111.640  0.00  0.00     0.091 C 
ENDROOT
BRANCH   1   7
ATOM      7  O   LIG d   1       1.102  82.009 109.712  0.00  0.00    -0.368 OA
BRANCH   7   8
ATOM      8  C   LIG d   1       2.432  82.578 109.618  0.00  0.00     0.119 C 
BRANCH   8   9
ATOM      9  C   LIG d   1       2.277  84.110 109.555  0.00  0.00     0.028 C 
ATOM     10  C   LIG d   1       3.152  84.831 110.593  0.00  0.00     0.006 C 
ENDBRANCH   8   9
BRANCH   8  11
ATOM     11  C   LIG d   1       3.115  82.184 108.305  0.00  0.00     0.028 C 
ATOM     12  C   LIG d   1       3.867  80.848 108.401  0.00  0.00     0.006 C 
ENDBRANCH   8  11
ENDBRANCH   7   8
ENDBRANCH   1   7
BRANCH   6  13
ATOM     13  N   LIG d   1       0.091  82.702 112.465  0.00  0.00    -0.311 N 
ATOM     14  C   LIG d   1      -0.248  83.960 112.190  0.00  0.00     0.210 C 
ATOM     15  C   LIG d   1       0.314  85.007 113.157  0.00  0.00     0.109 C 
ATOM     16  O   LIG d   1      -0.986  84.306 111.256  0.00  0.00    -0.276 OA
ATOM     17  H   LIG d   1       0.667  82.509 113.261  0.00  0.00     0.149 HD
ENDBRANCH   6  13
BRANCH   5  18
ATOM     18  N   LIG d   1      -2.129  80.743 113.221  0.00  0.00     0.381 N 
ATOM     19  H   LIG d   1      -2.806  81.105 112.579  0.00  0.00    -0.090 HD
ATOM     20  H   LIG d   1      -1.914  81.462 113.891  0.00  0.00    -0.090 HD
ATOM     21  H   LIG d   1      -2.496  79.944 113.688  0.00  0.00    -0.090 HD
ENDBRANCH   5  18
BRANCH   3  22
ATOM     22  C   LIG d   1      -0.055  77.515 110.355  0.00  0.00     0.382 C 
ATOM     23  O   LIG d   1      -1.018  76.730 110.531  0.00  0.00    -0.241 OA
ATOM     24  O   LIG d   1       1.009  77.082 109.875  0.00  0.00    -0.241 OA
ENDBRANCH   3  22
TORSDOF 7
ENDMDL
MODEL 4
REMARK VINA RESULT:      -6.2      2.524      4.841
REMARK  7 active torsions:
REMARK  status: ('A' for Active; 'I' for Inactive)
REMARK    1  A    between atoms: C_2  and  C_3 
REMARK    2  A    between atoms: C_3  and  O_6 
REMARK    3  A    between atoms: C_3  and  C_4 
REMARK    4  A    between atoms: C_7  and  O_6 
REMARK    5  A    between atoms: C_9  and  C_10 
REMARK    6  A    between atoms: N_15  and  C_14 
REMARK    7  A    between atoms: N_20  and  C_19 
REMARK       I    between atoms: C_22  and  N_20 
ROOT
ATOM      1  C   LIG d   1       0.238  82.426 111.062  0.00  0.00     0.161 C 
ATOM      2  C   LIG d   1      -0.862  82.219 111.912  0.00  0.00     0.016 C 
ATOM      3  C   LIG d   1      -1.337  80.937 112.270  0.00  0.00     0.038 C 
ATOM      4  C   LIG d   1      -0.648  79.766 111.922  0.00  0.00     0.028 C 
ATOM      5  C   LIG d   1       0.176  79.906 110.646  0.00  0.00    -0.047 C 
ATOM      6  C   LIG d   1       1.070  81.162 110.761  0.00  0.00     0.091 C 
ENDROOT
BRANCH   1   7
ATOM      7  O   LIG d   1       1.081  83.465 111.598  0.00  0.00    -0.368 OA
BRANCH   7   8
ATOM      8  C   LIG d   1       1.343  84.588 110.721  0.00  0.00     0.119 C 
BRANCH   8   9
ATOM      9  C   LIG d   1       2.853  84.888 110.793  0.00  0.00     0.028 C 
ATOM     10  C   LIG d   1       3.597  83.933 111.741  0.00  0.00     0.006 C 
ENDBRANCH   8   9
BRANCH   8  11
ATOM     11  C   LIG d   1       0.653  85.860 111.224  0.00  0.00     0.028 C 
ATOM     12  C   LIG d   1      -0.816  85.955 110.782  0.00  0.00     0.006 C 
ENDBRANCH   8  11
ENDBRANCH   7   8
ENDBRANCH   1   7
BRANCH   6  13
ATOM     13  N   LIG d   1       1.848  81.420 109.522  0.00  0.00    -0.311 N 
ATOM     14  C   LIG d   1       3.129  81.087 109.378  0.00  0.00     0.210 C 
ATOM     15  C   LIG d   1       3.747  81.461 108.027  0.00  0.00     0.109 C 
ATOM     16  O   LIG d   1       3.804  80.488 110.229  0.00  0.00    -0.276 OA
ATOM     17  H   LIG d   1       1.369  81.874 108.769  0.00  0.00     0.149 HD
ENDBRANCH   6  13
BRANCH   5  18
ATOM     18  N   LIG d   1       0.949  78.661 110.476  0.00  0.00     0.381 N 
ATOM     19  H   LIG d   1       1.827  78.740 110.949  0.00  0.00    -0.090 HD
ATOM     20  H   LIG d   1       1.129  78.521 109.498  0.00  0.00    -0.090 HD
ATOM     21  H   LIG d   1       0.435  77.888 110.841  0.00  0.00    -0.090 HD
ENDBRANCH   5  18
BRANCH   3  22
ATOM     22  C   LIG d   1      -2.538  80.816 112.953  0.00  0.00     0.382 C 
ATOM     23  O   LIG d   1      -3.559  81.414 112.536  0.00  0.00    -0.241 OA
ATOM     24  O   LIG d   1      -2.603  80.152 114.005  0.00  0.00    -0.241 OA
ENDBRANCH   3  22
TORSDOF 7
ENDMDL
MODEL 5
REMARK VINA RESULT:      -5.9      2.454      3.485
REMARK  7 active torsions:
REMARK  status: ('A' for Active; 'I' for Inactive)
REMARK    1  A    between atoms: C_2  and  C_3 
REMARK    2  A    between atoms: C_3  and  O_6 
REMARK    3  A    between atoms: C_3  and  C_4 
REMARK    4  A    between atoms: C_7  and  O_6 
REMARK    5  A    between atoms: C_9  and  C_10 
REMARK    6  A    between atoms: N_15  and  C_14 
REMARK    7  A    between atoms: N_20  and  C_19 
REMARK       I    between atoms: C_22  and  N_20 
ROOT
ATOM      1  C   LIG d   1       2.786  84.642 111.896  0.00  0.00     0.161 C 
ATOM      2  C   LIG d   1       3.546  85.814 112.052  0.00  0.00     0.016 C 
ATOM      3  C   LIG d   1       3.650  86.516 113.275  0.00  0.00     0.038 C 
ATOM      4  C   LIG d   1       3.120  86.007 114.470  0.00  0.00     0.028 C 
ATOM      5  C   LIG d   1       1.921  85.089 114.258  0.00  0.00    -0.047 C 
ATOM      6  C   LIG d   1       2.292  84.011 113.215  0.00  0.00     0.091 C 
ENDROOT
BRANCH   1   7
ATOM      7  O   LIG d   1       3.530  83.677 111.126  0.00  0.00    -0.368 OA
BRANCH   7   8
ATOM      8  C   LIG d   1       3.320  83.706 109.693  0.00  0.00     0.119 C 
BRANCH   8   9
ATOM      9  C   LIG d   1       1.809  83.530 109.443  0.00  0.00     0.028 C 
ATOM     10  C   LIG d   1       1.173  84.771 108.795  0.00  0.00     0.006 C 
ENDBRANCH   8   9
BRANCH   8  11
ATOM     11  C   LIG d   1       3.986  82.509 109.008  0.00  0.00     0.028 C 
ATOM     12  C   LIG d   1       4.743  81.604 109.993  0.00  0.00     0.006 C 
ENDBRANCH   8  11
ENDBRANCH   7   8
ENDBRANCH   1   7
BRANCH   6  13
ATOM     13  N   LIG d   1       1.147  83.123 112.886  0.00  0.00    -0.311 N 
ATOM     14  C   LIG d   1       1.261  81.804 112.740  0.00  0.00     0.210 C 
ATOM     15  C   LIG d   1      -0.039  81.078 112.382  0.00  0.00     0.109 C 
ATOM     16  O   LIG d   1       2.310  81.162 112.903  0.00  0.00    -0.276 OA
ATOM     17  H   LIG d   1       0.253  83.556 112.767  0.00  0.00     0.149 HD
ENDBRANCH   6  13
BRANCH   5  18
ATOM     18  N   LIG d   1       1.557  84.523 115.571  0.00  0.00     0.381 N 
ATOM     19  H   LIG d   1       0.846  85.084 115.997  0.00  0.00    -0.090 HD
ATOM     20  H   LIG d   1       2.366  84.533 116.166  0.00  0.00    -0.090 HD
ATOM     21  H   LIG d   1       1.229  83.588 115.459  0.00  0.00    -0.090 HD
ENDBRANCH   5  18
BRANCH   3  22
ATOM     22  C   LIG d   1       4.257  87.763 113.302  0.00  0.00     0.382 C 
ATOM     23  O   LIG d   1       3.577  88.786 113.558  0.00  0.00    -0.241 OA
ATOM     24  O   LIG d   1       5.467  87.882 113.030  0.00  0.00    -0.241 OA
ENDBRANCH   3  22
TORSDOF 7
ENDMDL
MODEL 6
REMARK VINA RESULT:      -5.9      2.129      4.897
REMARK  7 active torsions:
REMARK  status: ('A' for Active; 'I' for Inactive)
REMARK    1  A    between atoms: C_2  and  C_3 
REMARK    2  A    between atoms: C_3  and  O_6 
REMARK    3  A    between atoms: C_3  and  C_4 
REMARK    4  A    between atoms: C_7  and  O_6 
REMARK    5  A    between atoms: C_9  and  C_10 
REMARK    6  A    between atoms: N_15  and  C_14 
REMARK    7  A    between atoms: N_20  and  C_19 
REMARK       I    between atoms: C_22  and  N_20 
ROOT
ATOM      1  C   LIG d   1       2.292  82.900 112.454  0.00  0.00     0.161 C 
ATOM      2  C   LIG d   1       1.477  81.775 112.241  0.00  0.00     0.016 C 
ATOM      3  C   LIG d   1       0.083  81.854 112.023  0.00  0.00     0.038 C 
ATOM      4  C   LIG d   1      -0.572  83.083 111.851  0.00  0.00     0.028 C 
ATOM      5  C   LIG d   1       0.121  84.243 112.558  0.00  0.00    -0.047 C 
ATOM      6  C   LIG d   1       1.614  84.254 112.159  0.00  0.00     0.091 C 
ENDROOT
BRANCH   1   7
ATOM      7  O   LIG d   1       3.509  82.772 111.692  0.00  0.00    -0.368 OA
BRANCH   7   8
ATOM      8  C   LIG d   1       3.398  82.080 110.425  0.00  0.00     0.119 C 
BRANCH   8   9
ATOM      9  C   LIG d   1       4.679  81.243 110.241  0.00  0.00     0.028 C 
ATOM     10  C   LIG d   1       4.429  79.954 109.440  0.00  0.00     0.006 C 
ENDBRANCH   8   9
BRANCH   8  11
ATOM     11  C   LIG d   1       3.384  83.064 109.251  0.00  0.00     0.028 C 
ATOM     12  C   LIG d   1       2.070  83.024 108.456  0.00  0.00     0.006 C 
ENDBRANCH   8  11
ENDBRANCH   7   8
ENDBRANCH   1   7
BRANCH   6  13
ATOM     13  N   LIG d   1       2.383  85.307 112.872  0.00  0.00    -0.311 N 
ATOM     14  C   LIG d   1       2.571  86.533 112.388  0.00  0.00     0.210 C 
ATOM     15  C   LIG d   1       3.411  87.457 113.275  0.00  0.00     0.109 C 
ATOM     16  O   LIG d   1       2.093  86.953 111.323  0.00  0.00    -0.276 OA
ATOM     17  H   LIG d   1       2.779  85.061 113.759  0.00  0.00     0.149 HD
ENDBRANCH   6  13
BRANCH   5  18
ATOM     18  N   LIG d   1      -0.588  85.481 112.183  0.00  0.00     0.381 N 
ATOM     19  H   LIG d   1      -1.521  85.460 112.544  0.00  0.00    -0.090 HD
ATOM     20  H   LIG d   1      -0.638  85.535 111.181  0.00  0.00    -0.090 HD
ATOM     21  H   LIG d   1      -0.102  86.273 112.541  0.00  0.00    -0.090 HD
ENDBRANCH   5  18
BRANCH   3  22
ATOM     22  C   LIG d   1      -0.678  80.695 112.015  0.00  0.00     0.382 C 
ATOM     23  O   LIG d   1      -0.154  79.603 111.690  0.00  0.00    -0.241 OA
ATOM     24  O   LIG d   1      -1.894  80.736 112.285  0.00  0.00    -0.241 OA
ENDBRANCH   3  22
TORSDOF 7
ENDMDL
MODEL 7
REMARK VINA RESULT:      -5.9      1.985      4.137
REMARK  7 active torsions:
REMARK  status: ('A' for Active; 'I' for Inactive)
REMARK    1  A    between atoms: C_2  and  C_3 
REMARK    2  A    between atoms: C_3  and  O_6 
REMARK    3  A    between atoms: C_3  and  C_4 
REMARK    4  A    between atoms: C_7  and  O_6 
REMARK    5  A    between atoms: C_9  and  C_10 
REMARK    6  A    between atoms: N_15  and  C_14 
REMARK    7  A    between atoms: N_20  and  C_19 
REMARK       I    between atoms: C_22  and  N_20 
ROOT
ATOM      1  C   LIG d   1       0.789  81.922 111.300  0.00  0.00     0.161 C 
ATOM      2  C   LIG d   1       0.031  82.976 111.837  0.00  0.00     0.016 C 
ATOM      3  C   LIG d   1       0.426  84.332 111.768  0.00  0.00     0.038 C 
ATOM      4  C   LIG d   1       1.539  84.743 111.021  0.00  0.00     0.028 C 
ATOM      5  C   LIG d   1       2.611  83.666 110.887  0.00  0.00    -0.047 C 
ATOM      6  C   LIG d   1       1.951  82.362 110.385  0.00  0.00     0.091 C 
ENDROOT
BRANCH   1   7
ATOM      7  O   LIG d   1      -0.076  81.003 110.606  0.00  0.00    -0.368 OA
BRANCH   7   8
ATOM      8  C   LIG d   1      -0.006  79.618 111.028  0.00  0.00     0.119 C 
BRANCH   8   9
ATOM      9  C   LIG d   1       0.112  78.752 109.759  0.00  0.00     0.028 C 
ATOM     10  C   LIG d   1       0.202  79.598 108.477  0.00  0.00     0.006 C 
ENDBRANCH   8   9
BRANCH   8  11
ATOM     11  C   LIG d   1      -1.307  79.175 111.702  0.00  0.00     0.028 C 
ATOM     12  C   LIG d   1      -1.992  78.011 110.968  0.00  0.00     0.006 C 
ENDBRANCH   8  11
ENDBRANCH   7   8
ENDBRANCH   1   7
BRANCH   6  13
ATOM     13  N   LIG d   1       2.914  81.233 110.307  0.00  0.00    -0.311 N 
ATOM     14  C   LIG d   1       3.594  80.924 109.204  0.00  0.00     0.210 C 
ATOM     15  C   LIG d   1       4.520  79.710 109.334  0.00  0.00     0.109 C 
ATOM     16  O   LIG d   1       3.543  81.560 108.140  0.00  0.00    -0.276 OA
ATOM     17  H   LIG d   1       3.040  80.683 111.134  0.00  0.00     0.149 HD
ENDBRANCH   6  13
BRANCH   5  18
ATOM     18  N   LIG d   1       3.648  84.180 109.973  0.00  0.00     0.381 N 
ATOM     19  H   LIG d   1       4.508  84.300 110.469  0.00  0.00    -0.090 HD
ATOM     20  H   LIG d   1       3.358  85.076 109.623  0.00  0.00    -0.090 HD
ATOM     21  H   LIG d   1       3.778  83.546 109.215  0.00  0.00    -0.090 HD
ENDBRANCH   5  18
BRANCH   3  22
ATOM     22  C   LIG d   1      -0.275  85.289 112.486  0.00  0.00     0.382 C 
ATOM     23  O   LIG d   1      -1.320  85.792 112.006  0.00  0.00    -0.241 OA
ATOM     24  O   LIG d   1       0.148  85.688 113.588  0.00  0.00    -0.241 OA
ENDBRANCH   3  22
TORSDOF 7
ENDMDL
MODEL 8
REMARK VINA RESULT:      -5.9      2.077      2.962
REMARK  7 active torsions:
REMARK  status: ('A' for Active; 'I' for Inactive)
REMARK    1  A    between atoms: C_2  and  C_3 
REMARK    2  A    between atoms: C_3  and  O_6 
REMARK    3  A    between atoms: C_3  and  C_4 
REMARK    4  A    between atoms: C_7  and  O_6 
REMARK    5  A    between atoms: C_9  and  C_10 
REMARK    6  A    between atoms: N_15  and  C_14 
REMARK    7  A    between atoms: N_20  and  C_19 
REMARK       I    between atoms: C_22  and  N_20 
ROOT
ATOM      1  C   LIG d   1       1.374  82.999 110.992  0.00  0.00     0.161 C 
ATOM      2  C   LIG d   1       2.036  84.232 110.865  0.00  0.00     0.016 C 
ATOM      3  C   LIG d   1       2.548  84.956 111.966  0.00  0.00     0.038 C 
ATOM      4  C   LIG d   1       2.567  84.421 113.262  0.00  0.00     0.028 C 
ATOM      5  C   LIG d   1       1.458  83.404 113.513  0.00  0.00    -0.047 C 
ATOM      6  C   LIG d   1       1.483  82.347 112.386  0.00  0.00     0.091 C 
ENDROOT
BRANCH   1   7
ATOM      7  O   LIG d   1       1.838  82.089 109.975  0.00  0.00    -0.368 OA
BRANCH   7   8
ATOM      8  C   LIG d   1       3.172  82.329 109.465  0.00  0.00     0.119 C 
BRANCH   8   9
ATOM      9  C   LIG d   1       3.134  82.103 107.941  0.00  0.00     0.028 C 
ATOM     10  C   LIG d   1       1.974  82.855 107.266  0.00  0.00     0.006 C 
ENDBRANCH   8   9
BRANCH   8  11
ATOM     11  C   LIG d   1       4.168  81.296 110.003  0.00  0.00     0.028 C 
ATOM     12  C   LIG d   1       5.025  81.840 111.157  0.00  0.00     0.006 C 
ENDBRANCH   8  11
ENDBRANCH   7   8
ENDBRANCH   1   7
BRANCH   6  13
ATOM     13  N   LIG d   1       0.377  81.361 112.509  0.00  0.00    -0.311 N 
ATOM     14  C   LIG d   1      -0.910  81.684 112.388  0.00  0.00     0.210 C 
ATOM     15  C   LIG d   1      -1.889  80.520 112.570  0.00  0.00     0.109 C 
ATOM     16  O   LIG d   1      -1.332  82.818 112.116  0.00  0.00    -0.276 OA
ATOM     17  H   LIG d   1       0.631  80.412 112.698  0.00  0.00     0.149 HD
ENDBRANCH   6  13
BRANCH   5  18
ATOM     18  N   LIG d   1       1.678  82.826 114.853  0.00  0.00     0.381 N 
ATOM     19  H   LIG d   1       1.724  83.557 115.534  0.00  0.00    -0.090 HD
ATOM     20  H   LIG d   1       2.556  82.337 114.855  0.00  0.00    -0.090 HD
ATOM     21  H   LIG d   1       0.939  82.197 115.078  0.00  0.00    -0.090 HD
ENDBRANCH   5  18
BRANCH   3  22
ATOM     22  C   LIG d   1       3.014  86.249 111.781  0.00  0.00     0.382 C 
ATOM     23  O   LIG d   1       2.207  87.209 111.759  0.00  0.00    -0.241 OA
ATOM     24  O   LIG d   1       4.227  86.463 111.591  0.00  0.00    -0.241 OA
ENDBRANCH   3  22
TORSDOF 7
ENDMDL
MODEL 9
REMARK VINA RESULT:      -5.7      1.899      2.427
REMARK  7 active torsions:
REMARK  status: ('A' for Active; 'I' for Inactive)
REMARK    1  A    between atoms: C_2  and  C_3 
REMARK    2  A    between atoms: C_3  and  O_6 
REMARK    3  A    between atoms: C_3  and  C_4 
REMARK    4  A    between atoms: C_7  and  O_6 
REMARK    5  A    between atoms: C_9  and  C_10 
REMARK    6  A    between atoms: N_15  and  C_14 
REMARK    7  A    between atoms: N_20  and  C_19 
REMARK       I    between atoms: C_22  and  N_20 
ROOT
ATOM      1  C   LIG d   1       2.861  83.618 111.655  0.00  0.00     0.161 C 
ATOM      2  C   LIG d   1       3.260  84.760 112.370  0.00  0.00     0.016 C 
ATOM      3  C   LIG d   1       2.790  86.062 112.082  0.00  0.00     0.038 C 
ATOM      4  C   LIG d   1       1.765  86.291 111.152  0.00  0.00     0.028 C 
ATOM      5  C   LIG d   1       1.694  85.233 110.056  0.00  0.00    -0.047 C 
ATOM      6  C   LIG d   1       1.660  83.833 110.711  0.00  0.00     0.091 C 
ENDROOT
BRANCH   1   7
ATOM      7  O   LIG d   1       2.590  82.538 112.572  0.00  0.00    -0.368 OA
BRANCH   7   8
ATOM      8  C   LIG d   1       3.585  81.486 112.628  0.00  0.00     0.119 C 
BRANCH   8   9
ATOM      9  C   LIG d   1       4.156  81.466 114.059  0.00  0.00     0.028 C 
ATOM     10  C   LIG d   1       3.077  81.719 115.126  0.00  0.00     0.006 C 
ENDBRANCH   8   9
BRANCH   8  11
ATOM     11  C   LIG d   1       4.778  81.797 111.720  0.00  0.00     0.028 C 
ATOM     12  C   LIG d   1       4.728  81.031 110.388  0.00  0.00     0.006 C 
ENDBRANCH   8  11
ENDBRANCH   7   8
ENDBRANCH   1   7
BRANCH   6  13
ATOM     13  N   LIG d   1       1.675  82.737 109.707  0.00  0.00    -0.311 N 
ATOM     14  C   LIG d   1       0.932  81.637 109.813  0.00  0.00     0.210 C 
ATOM     15  C   LIG d   1       1.114  80.623 108.678  0.00  0.00     0.109 C 
ATOM     16  O   LIG d   1       0.117  81.418 110.721  0.00  0.00    -0.276 OA
ATOM     17  H   LIG d   1       2.285  82.847 108.921  0.00  0.00     0.149 HD
ENDBRANCH   6  13
BRANCH   5  18
ATOM     18  N   LIG d   1       0.500  85.518 109.238  0.00  0.00     0.381 N 
ATOM     19  H   LIG d   1       0.767  86.002 108.405  0.00  0.00    -0.090 HD
ATOM     20  H   LIG d   1      -0.119  86.112 109.762  0.00  0.00    -0.090 HD
ATOM     21  H   LIG d   1       0.036  84.668 109.004  0.00  0.00    -0.090 HD
ENDBRANCH   5  18
BRANCH   3  22
ATOM     22  C   LIG d   1       3.375  87.156 112.701  0.00  0.00     0.382 C 
ATOM     23  O   LIG d   1       2.709  88.203 112.883  0.00  0.00    -0.241 OA
ATOM     24  O   LIG d   1       4.573  87.124 113.039  0.00  0.00    -0.241 OA
ENDBRANCH   3  22
TORSDOF 7
ENDMDL
