MODEL 1
REMARK VINA RESULT:      -6.2      0.000      0.000
REMARK  7 active torsions:
REMARK  status: ('A' for Active; 'I' for Inactive)
REMARK    1  A    between atoms: C_2  and  C_3 
REMARK    2  A    between atoms: C_3  and  O_6 
REMARK    3  A    between atoms: C_3  and  C_4 
REMARK    4  A    between atoms: C_7  and  O_6 
REMARK    5  A    between atoms: C_9  and  C_10 
REMARK    6  A    between atoms: N_15  and  C_14 
REMARK    7  A    between atoms: N_20  and  C_19 
REMARK       I    between atoms: C_22  and  N_20 
ROOT
ATOM      1  C   LIG d   1      -7.756  74.891 116.550  0.00  0.00     0.161 C 
ATOM      2  C   LIG d   1      -6.596  74.831 115.761  0.00  0.00     0.016 C 
ATOM      3  C   LIG d   1      -5.724  75.928 115.574  0.00  0.00     0.038 C 
ATOM      4  C   LIG d   1      -5.874  77.124 116.291  0.00  0.00     0.028 C 
ATOM      5  C   LIG d   1      -7.313  77.402 116.711  0.00  0.00    -0.047 C 
ATOM      6  C   LIG d   1      -7.876  76.154 117.428  0.00  0.00     0.091 C 
ENDROOT
BRANCH   1   7
ATOM      7  O   LIG d   1      -7.857  73.704 117.362  0.00  0.00    -0.368 OA
BRANCH   7   8
ATOM      8  C   LIG d   1      -9.159  73.071 117.408  0.00  0.00     0.119 C 
BRANCH   8   9
ATOM      9  C   LIG d   1      -9.483  72.786 118.887  0.00  0.00     0.028 C 
ATOM     10  C   LIG d   1      -8.245  72.899 119.792  0.00  0.00     0.006 C 
ENDBRANCH   8   9
BRANCH   8  11
ATOM     11  C   LIG d   1      -9.137  71.700 116.726  0.00  0.00     0.028 C 
ATOM     12  C   LIG d   1      -7.712  71.178 116.485  0.00  0.00     0.006 C 
ENDBRANCH   8  11
ENDBRANCH   7   8
ENDBRANCH   1   7
BRANCH   6  13
ATOM     13  N   LIG d   1      -9.307  76.310 117.799  0.00  0.00    -0.311 N 
ATOM     14  C   LIG d   1      -9.736  76.368 119.058  0.00  0.00     0.210 C 
ATOM     15  C   LIG d   1     -11.253  76.510 119.219  0.00  0.00     0.109 C 
ATOM     16  O   LIG d   1      -9.002  76.347 120.057  0.00  0.00    -0.276 OA
ATOM     17  H   LIG d   1      -9.969  76.366 117.049  0.00  0.00     0.149 HD
ENDBRANCH   6  13
BRANCH   5  18
ATOM     18  N   LIG d   1      -7.304  78.604 117.566  0.00  0.00     0.381 N 
ATOM     19  H   LIG d   1      -6.626  78.497 118.294  0.00  0.00    -0.090 HD
ATOM     20  H   LIG d   1      -8.209  78.709 117.990  0.00  0.00    -0.090 HD
ATOM     21  H   LIG d   1      -7.090  79.409 117.019  0.00  0.00    -0.090 HD
ENDBRANCH   5  18
BRANCH   3  22
ATOM     22  C   LIG d   1      -4.711  75.848 114.631  0.00  0.00     0.382 C 
ATOM     23  O   LIG d   1      -4.930  76.192 113.444  0.00  0.00    -0.241 OA
ATOM     24  O   LIG d   1      -3.593  75.394 114.941  0.00  0.00    -0.241 OA
ENDBRANCH   3  22
TORSDOF 7
ENDMDL
MODEL 2
REMARK VINA RESULT:      -5.8      1.286      1.973
REMARK  7 active torsions:
REMARK  status: ('A' for Active; 'I' for Inactive)
REMARK    1  A    between atoms: C_2  and  C_3 
REMARK    2  A    between atoms: C_3  and  O_6 
REMARK    3  A    between atoms: C_3  and  C_4 
REMARK    4  A    between atoms: C_7  and  O_6 
REMARK    5  A    between atoms: C_9  and  C_10 
REMARK    6  A    between atoms: N_15  and  C_14 
REMARK    7  A    between atoms: N_20  and  C_19 
REMARK       I    between atoms: C_22  and  N_20 
ROOT
ATOM      1  C   LIG d   1      -8.286  75.877 116.239  0.00  0.00     0.161 C 
ATOM      2  C   LIG d   1      -7.278  75.428 115.370  0.00  0.00     0.016 C 
ATOM      3  C   LIG d   1      -5.997  76.020 115.292  0.00  0.00     0.038 C 
ATOM      4  C   LIG d   1      -5.583  77.014 116.192  0.00  0.00     0.028 C 
ATOM      5  C   LIG d   1      -6.735  77.842 116.751  0.00  0.00    -0.047 C 
ATOM      6  C   LIG d   1      -7.817  76.888 117.306  0.00  0.00     0.091 C 
ENDROOT
BRANCH   1   7
ATOM      7  O   LIG d   1      -8.930  74.750 116.866  0.00  0.00    -0.368 OA
BRANCH   7   8
ATOM      8  C   LIG d   1      -8.136  74.019 117.833  0.00  0.00     0.119 C 
BRANCH   8   9
ATOM      9  C   LIG d   1      -7.894  72.608 117.262  0.00  0.00     0.028 C 
ATOM     10  C   LIG d   1      -9.205  71.857 116.978  0.00  0.00     0.006 C 
ENDBRANCH   8   9
BRANCH   8  11
ATOM     11  C   LIG d   1      -8.908  73.802 119.137  0.00  0.00     0.028 C 
ATOM     12  C   LIG d   1     -10.270  74.515 119.150  0.00  0.00     0.006 C 
ENDBRANCH   8  11
ENDBRANCH   7   8
ENDBRANCH   1   7
BRANCH   6  13
ATOM     13  N   LIG d   1      -9.017  77.615 117.796  0.00  0.00    -0.311 N 
ATOM     14  C   LIG d   1      -9.192  77.968 119.068  0.00  0.00     0.210 C 
ATOM     15  C   LIG d   1     -10.509  78.692 119.363  0.00  0.00     0.109 C 
ATOM     16  O   LIG d   1      -8.367  77.778 119.975  0.00  0.00    -0.276 OA
ATOM     17  H   LIG d   1      -9.723  77.836 117.121  0.00  0.00     0.149 HD
ENDBRANCH   6  13
BRANCH   5  18
ATOM     18  N   LIG d   1      -6.179  78.745 117.776  0.00  0.00     0.381 N 
ATOM     19  H   LIG d   1      -5.191  78.834 117.649  0.00  0.00    -0.090 HD
ATOM     20  H   LIG d   1      -6.345  78.348 118.684  0.00  0.00    -0.090 HD
ATOM     21  H   LIG d   1      -6.612  79.640 117.713  0.00  0.00    -0.090 HD
ENDBRANCH   5  18
BRANCH   3  22
ATOM     22  C   LIG d   1      -5.127  75.646 114.279  0.00  0.00     0.382 C 
ATOM     23  O   LIG d   1      -4.306  76.476 113.819  0.00  0.00    -0.241 OA
ATOM     24  O   LIG d   1      -5.183  74.503 113.789  0.00  0.00    -0.241 OA
ENDBRANCH   3  22
TORSDOF 7
ENDMDL
MODEL 3
REMARK VINA RESULT:      -5.6      1.338      1.842
REMARK  7 active torsions:
REMARK  status: ('A' for Active; 'I' for Inactive)
REMARK    1  A    between atoms: C_2  and  C_3 
REMARK    2  A    between atoms: C_3  and  O_6 
REMARK    3  A    between atoms: C_3  and  C_4 
REMARK    4  A    between atoms: C_7  and  O_6 
REMARK    5  A    between atoms: C_9  and  C_10 
REMARK    6  A    between atoms: N_15  and  C_14 
REMARK    7  A    between atoms: N_20  and  C_19 
REMARK       I    between atoms: C_22  and  N_20 
ROOT
ATOM      1  C   LIG d   1      -7.623  75.838 117.056  0.00  0.00     0.161 C 
ATOM      2  C   LIG d   1      -6.853  75.378 115.975  0.00  0.00     0.016 C 
ATOM      3  C   LIG d   1      -5.714  76.058 115.485  0.00  0.00     0.038 C 
ATOM      4  C   LIG d   1      -5.176  77.174 116.145  0.00  0.00     0.028 C 
ATOM      5  C   LIG d   1      -6.210  77.964 116.940  0.00  0.00    -0.047 C 
ATOM      6  C   LIG d   1      -6.988  76.993 117.858  0.00  0.00     0.091 C 
ENDROOT
BRANCH   1   7
ATOM      7  O   LIG d   1      -7.944  74.738 117.930  0.00  0.00    -0.368 OA
BRANCH   7   8
ATOM      8  C   LIG d   1      -9.230  74.106 117.714  0.00  0.00     0.119 C 
BRANCH   8   9
ATOM      9  C   LIG d   1     -10.248  74.800 118.640  0.00  0.00     0.028 C 
ATOM     10  C   LIG d   1     -11.069  75.875 117.909  0.00  0.00     0.006 C 
ENDBRANCH   8   9
BRANCH   8  11
ATOM     11  C   LIG d   1      -9.212  72.640 118.157  0.00  0.00     0.028 C 
ATOM     12  C   LIG d   1      -9.181  71.660 116.974  0.00  0.00     0.006 C 
ENDBRANCH   8  11
ENDBRANCH   7   8
ENDBRANCH   1   7
BRANCH   6  13
ATOM     13  N   LIG d   1      -8.076  77.671 118.609  0.00  0.00    -0.311 N 
ATOM     14  C   LIG d   1      -8.233  77.565 119.927  0.00  0.00     0.210 C 
ATOM     15  C   LIG d   1      -9.432  78.330 120.499  0.00  0.00     0.109 C 
ATOM     16  O   LIG d   1      -7.476  76.937 120.681  0.00  0.00    -0.276 OA
ATOM     17  H   LIG d   1      -8.718  78.228 118.079  0.00  0.00     0.149 HD
ENDBRANCH   6  13
BRANCH   5  18
ATOM     18  N   LIG d   1      -5.492  79.014 117.686  0.00  0.00     0.381 N 
ATOM     19  H   LIG d   1      -4.508  78.832 117.664  0.00  0.00    -0.090 HD
ATOM     20  H   LIG d   1      -5.794  78.997 118.644  0.00  0.00    -0.090 HD
ATOM     21  H   LIG d   1      -5.681  79.907 117.286  0.00  0.00    -0.090 HD
ENDBRANCH   5  18
BRANCH   3  22
ATOM     22  C   LIG d   1      -5.124  75.647 114.300  0.00  0.00     0.382 C 
ATOM     23  O   LIG d   1      -4.352  76.419 113.683  0.00  0.00    -0.241 OA
ATOM     24  O   LIG d   1      -5.389  74.529 113.818  0.00  0.00    -0.241 OA
ENDBRANCH   3  22
TORSDOF 7
ENDMDL
MODEL 4
REMARK VINA RESULT:      -5.6      2.274      4.658
REMARK  7 active torsions:
REMARK  status: ('A' for Active; 'I' for Inactive)
REMARK    1  A    between atoms: C_2  and  C_3 
REMARK    2  A    between atoms: C_3  and  O_6 
REMARK    3  A    between atoms: C_3  and  C_4 
REMARK    4  A    between atoms: C_7  and  O_6 
REMARK    5  A    between atoms: C_9  and  C_10 
REMARK    6  A    between atoms: N_15  and  C_14 
REMARK    7  A    between atoms: N_20  and  C_19 
REMARK       I    between atoms: C_22  and  N_20 
ROOT
ATOM      1  C   LIG d   1      -7.499  74.753 118.495  0.00  0.00     0.161 C 
ATOM      2  C   LIG d   1      -7.488  73.441 117.991  0.00  0.00     0.016 C 
ATOM      3  C   LIG d   1      -8.581  72.862 117.306  0.00  0.00     0.038 C 
ATOM      4  C   LIG d   1      -9.710  73.611 116.943  0.00  0.00     0.028 C 
ATOM      5  C   LIG d   1      -9.976  74.793 117.869  0.00  0.00    -0.047 C 
ATOM      6  C   LIG d   1      -8.679  75.621 118.011  0.00  0.00     0.091 C 
ENDROOT
BRANCH   1   7
ATOM      7  O   LIG d   1      -6.246  75.400 118.198  0.00  0.00    -0.368 OA
BRANCH   7   8
ATOM      8  C   LIG d   1      -5.618  75.030 116.946  0.00  0.00     0.119 C 
BRANCH   8   9
ATOM      9  C   LIG d   1      -4.100  74.941 117.197  0.00  0.00     0.028 C 
ATOM     10  C   LIG d   1      -3.278  75.553 116.050  0.00  0.00     0.006 C 
ENDBRANCH   8   9
BRANCH   8  11
ATOM     11  C   LIG d   1      -5.791  76.126 115.890  0.00  0.00     0.028 C 
ATOM     12  C   LIG d   1      -6.841  75.769 114.827  0.00  0.00     0.006 C 
ENDBRANCH   8  11
ENDBRANCH   7   8
ENDBRANCH   1   7
BRANCH   6  13
ATOM     13  N   LIG d   1      -8.829  76.749 118.967  0.00  0.00    -0.311 N 
ATOM     14  C   LIG d   1      -8.576  78.018 118.649  0.00  0.00     0.210 C 
ATOM     15  C   LIG d   1      -8.775  79.022 119.789  0.00  0.00     0.109 C 
ATOM     16  O   LIG d   1      -8.237  78.411 117.523  0.00  0.00    -0.276 OA
ATOM     17  H   LIG d   1      -9.129  76.524 119.895  0.00  0.00     0.149 HD
ENDBRANCH   6  13
BRANCH   5  18
ATOM     18  N   LIG d   1     -11.096  75.564 117.297  0.00  0.00     0.381 N 
ATOM     19  H   LIG d   1     -10.747  76.219 116.626  0.00  0.00    -0.090 HD
ATOM     20  H   LIG d   1     -11.547  76.078 118.034  0.00  0.00    -0.090 HD
ATOM     21  H   LIG d   1     -11.748  74.948 116.864  0.00  0.00    -0.090 HD
ENDBRANCH   5  18
BRANCH   3  22
ATOM     22  C   LIG d   1      -8.567  71.507 117.012  0.00  0.00     0.382 C 
ATOM     23  O   LIG d   1      -7.798  71.066 116.125  0.00  0.00    -0.241 OA
ATOM     24  O   LIG d   1      -9.346  70.726 117.592  0.00  0.00    -0.241 OA
ENDBRANCH   3  22
TORSDOF 7
ENDMDL
MODEL 5
REMARK VINA RESULT:      -5.3      2.396      4.658
REMARK  7 active torsions:
REMARK  status: ('A' for Active; 'I' for Inactive)
REMARK    1  A    between atoms: C_2  and  C_3 
REMARK    2  A    between atoms: C_3  and  O_6 
REMARK    3  A    between atoms: C_3  and  C_4 
REMARK    4  A    between atoms: C_7  and  O_6 
REMARK    5  A    between atoms: C_9  and  C_10 
REMARK    6  A    between atoms: N_15  and  C_14 
REMARK    7  A    between atoms: N_20  and  C_19 
REMARK       I    between atoms: C_22  and  N_20 
ROOT
ATOM      1  C   LIG d   1      -7.547  76.409 117.310  0.00  0.00     0.161 C 
ATOM      2  C   LIG d   1      -7.490  77.813 117.346  0.00  0.00     0.016 C 
ATOM      3  C   LIG d   1      -8.552  78.623 117.810  0.00  0.00     0.038 C 
ATOM      4  C   LIG d   1      -9.694  78.074 118.414  0.00  0.00     0.028 C 
ATOM      5  C   LIG d   1     -10.011  76.661 117.938  0.00  0.00    -0.047 C 
ATOM      6  C   LIG d   1      -8.740  75.791 118.068  0.00  0.00     0.091 C 
ENDROOT
BRANCH   1   7
ATOM      7  O   LIG d   1      -6.306  75.858 117.793  0.00  0.00    -0.368 OA
BRANCH   7   8
ATOM      8  C   LIG d   1      -5.587  75.002 116.871  0.00  0.00     0.119 C 
BRANCH   8   9
ATOM      9  C   LIG d   1      -4.195  75.625 116.651  0.00  0.00     0.028 C 
ATOM     10  C   LIG d   1      -3.091  74.883 117.423  0.00  0.00     0.006 C 
ENDBRANCH   8   9
BRANCH   8  11
ATOM     11  C   LIG d   1      -6.249  74.990 115.490  0.00  0.00     0.028 C 
ATOM     12  C   LIG d   1      -5.253  75.254 114.350  0.00  0.00     0.006 C 
ENDBRANCH   8  11
ENDBRANCH   7   8
ENDBRANCH   1   7
BRANCH   6  13
ATOM     13  N   LIG d   1      -8.940  74.414 117.545  0.00  0.00    -0.311 N 
ATOM     14  C   LIG d   1      -9.306  73.386 118.309  0.00  0.00     0.210 C 
ATOM     15  C   LIG d   1      -9.436  72.048 117.573  0.00  0.00     0.109 C 
ATOM     16  O   LIG d   1      -9.567  73.461 119.519  0.00  0.00    -0.276 OA
ATOM     17  H   LIG d   1      -8.779  74.269 116.567  0.00  0.00     0.149 HD
ENDBRANCH   6  13
BRANCH   5  18
ATOM     18  N   LIG d   1     -11.139  76.161 118.746  0.00  0.00     0.381 N 
ATOM     19  H   LIG d   1     -10.794  75.749 119.591  0.00  0.00    -0.090 HD
ATOM     20  H   LIG d   1     -11.624  75.452 118.225  0.00  0.00    -0.090 HD
ATOM     21  H   LIG d   1     -11.761  76.908 118.963  0.00  0.00    -0.090 HD
ENDBRANCH   5  18
BRANCH   3  22
ATOM     22  C   LIG d   1      -8.496  79.997 117.634  0.00  0.00     0.382 C 
ATOM     23  O   LIG d   1      -9.455  80.716 118.004  0.00  0.00    -0.241 OA
ATOM     24  O   LIG d   1      -7.517  80.522 117.071  0.00  0.00    -0.241 OA
ENDBRANCH   3  22
TORSDOF 7
ENDMDL
MODEL 6
REMARK VINA RESULT:      -5.2      2.001      4.238
REMARK  7 active torsions:
REMARK  status: ('A' for Active; 'I' for Inactive)
REMARK    1  A    between atoms: C_2  and  C_3 
REMARK    2  A    between atoms: C_3  and  O_6 
REMARK    3  A    between atoms: C_3  and  C_4 
REMARK    4  A    between atoms: C_7  and  O_6 
REMARK    5  A    between atoms: C_9  and  C_10 
REMARK    6  A    between atoms: N_15  and  C_14 
REMARK    7  A    between atoms: N_20  and  C_19 
REMARK       I    between atoms: C_22  and  N_20 
ROOT
ATOM      1  C   LIG d   1      -6.995  76.073 116.855  0.00  0.00     0.161 C 
ATOM      2  C   LIG d   1      -5.983  76.485 115.972  0.00  0.00     0.016 C 
ATOM      3  C   LIG d   1      -5.248  75.592 115.160  0.00  0.00     0.038 C 
ATOM      4  C   LIG d   1      -5.581  74.232 115.063  0.00  0.00     0.028 C 
ATOM      5  C   LIG d   1      -6.264  73.686 116.312  0.00  0.00    -0.047 C 
ATOM      6  C   LIG d   1      -7.448  74.609 116.681  0.00  0.00     0.091 C 
ENDROOT
BRANCH   1   7
ATOM      7  O   LIG d   1      -8.125  76.963 116.752  0.00  0.00    -0.368 OA
BRANCH   7   8
ATOM      8  C   LIG d   1      -8.408  77.771 117.920  0.00  0.00     0.119 C 
BRANCH   8   9
ATOM      9  C   LIG d   1      -8.028  79.225 117.580  0.00  0.00     0.028 C 
ATOM     10  C   LIG d   1      -6.632  79.605 118.103  0.00  0.00     0.006 C 
ENDBRANCH   8   9
BRANCH   8  11
ATOM     11  C   LIG d   1      -7.510  77.382 119.098  0.00  0.00     0.028 C 
ATOM     12  C   LIG d   1      -8.308  76.960 120.342  0.00  0.00     0.006 C 
ENDBRANCH   8  11
ENDBRANCH   7   8
ENDBRANCH   1   7
BRANCH   6  13
ATOM     13  N   LIG d   1      -8.119  74.193 117.940  0.00  0.00    -0.311 N 
ATOM     14  C   LIG d   1      -9.162  73.365 117.976  0.00  0.00     0.210 C 
ATOM     15  C   LIG d   1      -9.716  73.083 119.377  0.00  0.00     0.109 C 
ATOM     16  O   LIG d   1      -9.661  72.812 116.984  0.00  0.00    -0.276 OA
ATOM     17  H   LIG d   1      -7.760  74.570 118.795  0.00  0.00     0.149 HD
ENDBRANCH   6  13
BRANCH   5  18
ATOM     18  N   LIG d   1      -6.679  72.300 116.023  0.00  0.00     0.381 N 
ATOM     19  H   LIG d   1      -7.678  72.241 116.011  0.00  0.00    -0.090 HD
ATOM     20  H   LIG d   1      -6.337  71.700 116.753  0.00  0.00    -0.090 HD
ATOM     21  H   LIG d   1      -6.311  72.010 115.144  0.00  0.00    -0.090 HD
ENDBRANCH   5  18
BRANCH   3  22
ATOM     22  C   LIG d   1      -4.140  76.049 114.463  0.00  0.00     0.382 C 
ATOM     23  O   LIG d   1      -2.985  75.785 114.877  0.00  0.00    -0.241 OA
ATOM     24  O   LIG d   1      -4.280  76.760 113.450  0.00  0.00    -0.241 OA
ENDBRANCH   3  22
TORSDOF 7
ENDMDL
MODEL 7
REMARK VINA RESULT:      -5.2      2.652      4.708
REMARK  7 active torsions:
REMARK  status: ('A' for Active; 'I' for Inactive)
REMARK    1  A    between atoms: C_2  and  C_3 
REMARK    2  A    between atoms: C_3  and  O_6 
REMARK    3  A    between atoms: C_3  and  C_4 
REMARK    4  A    between atoms: C_7  and  O_6 
REMARK    5  A    between atoms: C_9  and  C_10 
REMARK    6  A    between atoms: N_15  and  C_14 
REMARK    7  A    between atoms: N_20  and  C_19 
REMARK       I    between atoms: C_22  and  N_20 
ROOT
ATOM      1  C   LIG d   1      -7.389  76.886 117.256  0.00  0.00     0.161 C 
ATOM      2  C   LIG d   1      -7.119  78.263 117.187  0.00  0.00     0.016 C 
ATOM      3  C   LIG d   1      -7.996  79.254 117.684  0.00  0.00     0.038 C 
ATOM      4  C   LIG d   1      -9.141  78.927 118.426  0.00  0.00     0.028 C 
ATOM      5  C   LIG d   1      -9.713  77.555 118.083  0.00  0.00    -0.047 C 
ATOM      6  C   LIG d   1      -8.580  76.506 118.161  0.00  0.00     0.091 C 
ENDROOT
BRANCH   1   7
ATOM      7  O   LIG d   1      -6.204  76.175 117.664  0.00  0.00    -0.368 OA
BRANCH   7   8
ATOM      8  C   LIG d   1      -5.299  75.783 116.603  0.00  0.00     0.119 C 
BRANCH   8   9
ATOM      9  C   LIG d   1      -6.075  74.850 115.654  0.00  0.00     0.028 C 
ATOM     10  C   LIG d   1      -5.827  75.181 114.173  0.00  0.00     0.006 C 
ENDBRANCH   8   9
BRANCH   8  11
ATOM     11  C   LIG d   1      -4.139  74.940 117.142  0.00  0.00     0.028 C 
ATOM     12  C   LIG d   1      -3.149  75.759 117.985  0.00  0.00     0.006 C 
ENDBRANCH   8  11
ENDBRANCH   7   8
ENDBRANCH   1   7
BRANCH   6  13
ATOM     13  N   LIG d   1      -9.036  75.149 117.758  0.00  0.00    -0.311 N 
ATOM     14  C   LIG d   1      -9.025  74.099 118.577  0.00  0.00     0.210 C 
ATOM     15  C   LIG d   1      -9.518  72.789 117.955  0.00  0.00     0.109 C 
ATOM     16  O   LIG d   1      -8.685  74.135 119.769  0.00  0.00    -0.276 OA
ATOM     17  H   LIG d   1      -9.358  75.037 116.817  0.00  0.00     0.149 HD
ENDBRANCH   6  13
BRANCH   5  18
ATOM     18  N   LIG d   1     -10.817  77.285 119.024  0.00  0.00     0.381 N 
ATOM     19  H   LIG d   1     -11.684  77.249 118.526  0.00  0.00    -0.090 HD
ATOM     20  H   LIG d   1     -10.866  78.035 119.690  0.00  0.00    -0.090 HD
ATOM     21  H   LIG d   1     -10.659  76.422 119.495  0.00  0.00    -0.090 HD
ENDBRANCH   5  18
BRANCH   3  22
ATOM     22  C   LIG d   1      -7.751  80.590 117.406  0.00  0.00     0.382 C 
ATOM     23  O   LIG d   1      -6.714  81.142 117.846  0.00  0.00    -0.241 OA
ATOM     24  O   LIG d   1      -8.576  81.262 116.758  0.00  0.00    -0.241 OA
ENDBRANCH   3  22
TORSDOF 7
ENDMDL
MODEL 8
REMARK VINA RESULT:      -5.1      3.072      5.817
REMARK  7 active torsions:
REMARK  status: ('A' for Active; 'I' for Inactive)
REMARK    1  A    between atoms: C_2  and  C_3 
REMARK    2  A    between atoms: C_3  and  O_6 
REMARK    3  A    between atoms: C_3  and  C_4 
REMARK    4  A    between atoms: C_7  and  O_6 
REMARK    5  A    between atoms: C_9  and  C_10 
REMARK    6  A    between atoms: N_15  and  C_14 
REMARK    7  A    between atoms: N_20  and  C_19 
REMARK       I    between atoms: C_22  and  N_20 
ROOT
ATOM      1  C   LIG d   1      -6.759  78.150 117.239  0.00  0.00     0.161 C 
ATOM      2  C   LIG d   1      -8.025  78.598 117.651  0.00  0.00     0.016 C 
ATOM      3  C   LIG d   1      -8.348  79.963 117.830  0.00  0.00     0.038 C 
ATOM      4  C   LIG d   1      -7.465  80.988 117.460  0.00  0.00     0.028 C 
ATOM      5  C   LIG d   1      -5.998  80.574 117.516  0.00  0.00    -0.047 C 
ATOM      6  C   LIG d   1      -5.817  79.259 116.724  0.00  0.00     0.091 C 
ENDROOT
BRANCH   1   7
ATOM      7  O   LIG d   1      -6.906  77.117 116.245  0.00  0.00    -0.368 OA
BRANCH   7   8
ATOM      8  C   LIG d   1      -7.401  75.841 116.721  0.00  0.00     0.119 C 
BRANCH   8   9
ATOM      9  C   LIG d   1      -6.493  74.743 116.134  0.00  0.00     0.028 C 
ATOM     10  C   LIG d   1      -6.649  73.399 116.864  0.00  0.00     0.006 C 
ENDBRANCH   8   9
BRANCH   8  11
ATOM     11  C   LIG d   1      -8.800  75.546 116.172  0.00  0.00     0.028 C 
ATOM     12  C   LIG d   1      -9.834  75.295 117.281  0.00  0.00     0.006 C 
ENDBRANCH   8  11
ENDBRANCH   7   8
ENDBRANCH   1   7
BRANCH   6  13
ATOM     13  N   LIG d   1      -4.427  78.739 116.798  0.00  0.00    -0.311 N 
ATOM     14  C   LIG d   1      -3.500  78.990 115.875  0.00  0.00     0.210 C 
ATOM     15  C   LIG d   1      -2.137  78.340 116.135  0.00  0.00     0.109 C 
ATOM     16  O   LIG d   1      -3.668  79.715 114.883  0.00  0.00    -0.276 OA
ATOM     17  H   LIG d   1      -4.196  78.167 117.587  0.00  0.00     0.149 HD
ENDBRANCH   6  13
BRANCH   5  18
ATOM     18  N   LIG d   1      -5.199  81.690 116.975  0.00  0.00     0.381 N 
ATOM     19  H   LIG d   1      -5.571  81.976 116.092  0.00  0.00    -0.090 HD
ATOM     20  H   LIG d   1      -4.256  81.375 116.833  0.00  0.00    -0.090 HD
ATOM     21  H   LIG d   1      -5.208  82.456 117.612  0.00  0.00    -0.090 HD
ENDBRANCH   5  18
BRANCH   3  22
ATOM     22  C   LIG d   1      -9.552  80.312 118.422  0.00  0.00     0.382 C 
ATOM     23  O   LIG d   1     -10.570  79.604 118.237  0.00  0.00    -0.241 OA
ATOM     24  O   LIG d   1      -9.643  81.352 119.103  0.00  0.00    -0.241 OA
ENDBRANCH   3  22
TORSDOF 7
ENDMDL
MODEL 9
REMARK VINA RESULT:      -5.1      2.753      5.256
REMARK  7 active torsions:
REMARK  status: ('A' for Active; 'I' for Inactive)
REMARK    1  A    between atoms: C_2  and  C_3 
REMARK    2  A    between atoms: C_3  and  O_6 
REMARK    3  A    between atoms: C_3  and  C_4 
REMARK    4  A    between atoms: C_7  and  O_6 
REMARK    5  A    between atoms: C_9  and  C_10 
REMARK    6  A    between atoms: N_15  and  C_14 
REMARK    7  A    between atoms: N_20  and  C_19 
REMARK       I    between atoms: C_22  and  N_20 
ROOT
ATOM      1  C   LIG d   1      -8.315  77.710 118.064  0.00  0.00     0.161 C 
ATOM      2  C   LIG d   1      -8.512  78.974 118.644  0.00  0.00     0.016 C 
ATOM      3  C   LIG d   1      -7.610  80.051 118.488  0.00  0.00     0.038 C 
ATOM      4  C   LIG d   1      -6.517  79.982 117.611  0.00  0.00     0.028 C 
ATOM      5  C   LIG d   1      -6.000  78.563 117.399  0.00  0.00    -0.047 C 
ATOM      6  C   LIG d   1      -7.186  77.649 117.014  0.00  0.00     0.091 C 
ENDROOT
BRANCH   1   7
ATOM      7  O   LIG d   1      -9.551  77.233 117.498  0.00  0.00    -0.368 OA
BRANCH   7   8
ATOM      8  C   LIG d   1     -10.076  76.003 118.056  0.00  0.00     0.119 C 
BRANCH   8   9
ATOM      9  C   LIG d   1     -10.287  75.019 116.889  0.00  0.00     0.028 C 
ATOM     10  C   LIG d   1      -9.675  73.636 117.170  0.00  0.00     0.006 C 
ENDBRANCH   8   9
BRANCH   8  11
ATOM     11  C   LIG d   1     -11.465  76.215 118.664  0.00  0.00     0.028 C 
ATOM     12  C   LIG d   1     -11.415  76.895 120.042  0.00  0.00     0.006 C 
ENDBRANCH   8  11
ENDBRANCH   7   8
ENDBRANCH   1   7
BRANCH   6  13
ATOM     13  N   LIG d   1      -6.781  76.226 116.870  0.00  0.00    -0.311 N 
ATOM     14  C   LIG d   1      -6.518  75.654 115.697  0.00  0.00     0.210 C 
ATOM     15  C   LIG d   1      -6.138  74.172 115.771  0.00  0.00     0.109 C 
ATOM     16  O   LIG d   1      -6.531  76.241 114.605  0.00  0.00    -0.276 OA
ATOM     17  H   LIG d   1      -6.715  75.684 117.709  0.00  0.00     0.149 HD
ENDBRANCH   6  13
BRANCH   5  18
ATOM     18  N   LIG d   1      -4.954  78.621 116.361  0.00  0.00     0.381 N 
ATOM     19  H   LIG d   1      -4.121  79.023 116.741  0.00  0.00    -0.090 HD
ATOM     20  H   LIG d   1      -5.273  79.207 115.610  0.00  0.00    -0.090 HD
ATOM     21  H   LIG d   1      -4.762  77.705 116.018  0.00  0.00    -0.090 HD
ENDBRANCH   5  18
BRANCH   3  22
ATOM     22  C   LIG d   1      -7.775  81.201 119.245  0.00  0.00     0.382 C 
ATOM     23  O   LIG d   1      -8.726  81.285 120.058  0.00  0.00    -0.241 OA
ATOM     24  O   LIG d   1      -7.011  82.173 119.092  0.00  0.00    -0.241 OA
ENDBRANCH   3  22
TORSDOF 7
ENDMDL
