MODEL 1
REMARK VINA RESULT:      -6.7      0.000      0.000
REMARK  7 active torsions:
REMARK  status: ('A' for Active; 'I' for Inactive)
REMARK    1  A    between atoms: C_2  and  C_3 
REMARK    2  A    between atoms: C_3  and  O_6 
REMARK    3  A    between atoms: C_3  and  C_4 
REMARK    4  A    between atoms: C_7  and  O_6 
REMARK    5  A    between atoms: C_9  and  C_10 
REMARK    6  A    between atoms: N_15  and  C_14 
REMARK    7  A    between atoms: N_20  and  C_19 
REMARK       I    between atoms: C_22  and  N_20 
ROOT
ATOM      1  C   LIG d   1       1.241  83.941 109.405  0.00  0.00     0.161 C 
ATOM      2  C   LIG d   1       0.878  85.231 109.825  0.00  0.00     0.016 C 
ATOM      3  C   LIG d   1       0.025  85.479 110.926  0.00  0.00     0.038 C 
ATOM      4  C   LIG d   1      -0.402  84.451 111.779  0.00  0.00     0.028 C 
ATOM      5  C   LIG d   1      -0.472  83.088 111.098  0.00  0.00    -0.047 C 
ATOM      6  C   LIG d   1       0.874  82.812 110.390  0.00  0.00     0.091 C 
ENDROOT
BRANCH   1   7
ATOM      7  O   LIG d   1       2.651  83.904 109.104  0.00  0.00    -0.368 OA
BRANCH   7   8
ATOM      8  C   LIG d   1       3.530  83.578 110.208  0.00  0.00     0.119 C 
BRANCH   8   9
ATOM      9  C   LIG d   1       4.105  84.901 110.749  0.00  0.00     0.028 C 
ATOM     10  C   LIG d   1       3.789  85.112 112.239  0.00  0.00     0.006 C 
ENDBRANCH   8   9
BRANCH   8  11
ATOM     11  C   LIG d   1       4.743  82.772 109.734  0.00  0.00     0.028 C 
ATOM     12  C   LIG d   1       4.491  82.039 108.407  0.00  0.00     0.006 C 
ENDBRANCH   8  11
ENDBRANCH   7   8
ENDBRANCH   1   7
BRANCH   6  13
ATOM     13  N   LIG d   1       0.863  81.536 109.628  0.00  0.00    -0.311 N 
ATOM     14  C   LIG d   1       1.556  80.458 109.992  0.00  0.00     0.210 C 
ATOM     15  C   LIG d   1       1.418  79.254 109.055  0.00  0.00     0.109 C 
ATOM     16  O   LIG d   1       2.245  80.375 111.020  0.00  0.00    -0.276 OA
ATOM     17  H   LIG d   1       0.304  81.506 108.798  0.00  0.00     0.149 HD
ENDBRANCH   6  13
BRANCH   5  18
ATOM     18  N   LIG d   1      -0.797  82.089 112.133  0.00  0.00     0.381 N 
ATOM     19  H   LIG d   1       0.046  81.700 112.505  0.00  0.00    -0.090 HD
ATOM     20  H   LIG d   1      -1.328  81.346 111.713  0.00  0.00    -0.090 HD
ATOM     21  H   LIG d   1      -1.326  82.513 112.863  0.00  0.00    -0.090 HD
ENDBRANCH   5  18
BRANCH   3  22
ATOM     22  C   LIG d   1      -0.440  86.764 111.158  0.00  0.00     0.382 C 
ATOM     23  O   LIG d   1       0.308  87.614 111.700  0.00  0.00    -0.241 OA
ATOM     24  O   LIG d   1      -1.613  87.073 110.874  0.00  0.00    -0.241 OA
ENDBRANCH   3  22
TORSDOF 7
ENDMDL
MODEL 2
REMARK VINA RESULT:      -6.2      2.579      4.309
REMARK  7 active torsions:
REMARK  status: ('A' for Active; 'I' for Inactive)
REMARK    1  A    between atoms: C_2  and  C_3 
REMARK    2  A    between atoms: C_3  and  O_6 
REMARK    3  A    between atoms: C_3  and  C_4 
REMARK    4  A    between atoms: C_7  and  O_6 
REMARK    5  A    between atoms: C_9  and  C_10 
REMARK    6  A    between atoms: N_15  and  C_14 
REMARK    7  A    between atoms: N_20  and  C_19 
REMARK       I    between atoms: C_22  and  N_20 
ROOT
ATOM      1  C   LIG d   1       0.544  82.064 111.067  0.00  0.00     0.161 C 
ATOM      2  C   LIG d   1      -0.583  81.855 111.879  0.00  0.00     0.016 C 
ATOM      3  C   LIG d   1      -1.204  80.594 112.038  0.00  0.00     0.038 C 
ATOM      4  C   LIG d   1      -0.645  79.420 111.513  0.00  0.00     0.028 C 
ATOM      5  C   LIG d   1       0.208  79.659 110.271  0.00  0.00    -0.047 C 
ATOM      6  C   LIG d   1       1.234  80.775 110.574  0.00  0.00     0.091 C 
ENDROOT
BRANCH   1   7
ATOM      7  O   LIG d   1       1.490  82.908 111.753  0.00  0.00    -0.368 OA
BRANCH   7   8
ATOM      8  C   LIG d   1       1.416  84.323 111.453  0.00  0.00     0.119 C 
BRANCH   8   9
ATOM      9  C   LIG d   1       1.107  84.462 109.949  0.00  0.00     0.028 C 
ATOM     10  C   LIG d   1       0.199  85.666 109.646  0.00  0.00     0.006 C 
ENDBRANCH   8   9
BRANCH   8  11
ATOM     11  C   LIG d   1       2.772  85.007 111.653  0.00  0.00     0.028 C 
ATOM     12  C   LIG d   1       3.673  84.917 110.411  0.00  0.00     0.006 C 
ENDBRANCH   8  11
ENDBRANCH   7   8
ENDBRANCH   1   7
BRANCH   6  13
ATOM     13  N   LIG d   1       2.054  81.129 109.386  0.00  0.00    -0.311 N 
ATOM     14  C   LIG d   1       3.361  81.375 109.444  0.00  0.00     0.210 C 
ATOM     15  C   LIG d   1       4.010  81.742 108.106  0.00  0.00     0.109 C 
ATOM     16  O   LIG d   1       4.052  81.292 110.471  0.00  0.00    -0.276 OA
ATOM     17  H   LIG d   1       1.580  81.188 108.506  0.00  0.00     0.149 HD
ENDBRANCH   6  13
BRANCH   5  18
ATOM     18  N   LIG d   1       0.839  78.375 109.911  0.00  0.00     0.381 N 
ATOM     19  H   LIG d   1       0.726  77.720 110.658  0.00  0.00    -0.090 HD
ATOM     20  H   LIG d   1       1.823  78.525 109.769  0.00  0.00    -0.090 HD
ATOM     21  H   LIG d   1       0.428  78.015 109.078  0.00  0.00    -0.090 HD
ENDBRANCH   5  18
BRANCH   3  22
ATOM     22  C   LIG d   1      -2.421  80.506 112.698  0.00  0.00     0.382 C 
ATOM     23  O   LIG d   1      -3.106  81.540 112.890  0.00  0.00    -0.241 OA
ATOM     24  O   LIG d   1      -2.821  79.414 113.143  0.00  0.00    -0.241 OA
ENDBRANCH   3  22
TORSDOF 7
ENDMDL
MODEL 3
REMARK VINA RESULT:      -6.1      2.405      4.807
REMARK  7 active torsions:
REMARK  status: ('A' for Active; 'I' for Inactive)
REMARK    1  A    between atoms: C_2  and  C_3 
REMARK    2  A    between atoms: C_3  and  O_6 
REMARK    3  A    between atoms: C_3  and  C_4 
REMARK    4  A    between atoms: C_7  and  O_6 
REMARK    5  A    between atoms: C_9  and  C_10 
REMARK    6  A    between atoms: N_15  and  C_14 
REMARK    7  A    between atoms: N_20  and  C_19 
REMARK       I    between atoms: C_22  and  N_20 
ROOT
ATOM      1  C   LIG d   1       2.491  83.163 111.280  0.00  0.00     0.161 C 
ATOM      2  C   LIG d   1       1.587  82.088 111.225  0.00  0.00     0.016 C 
ATOM      3  C   LIG d   1       0.200  82.225 111.459  0.00  0.00     0.038 C 
ATOM      4  C   LIG d   1      -0.405  83.481 111.617  0.00  0.00     0.028 C 
ATOM      5  C   LIG d   1       0.536  84.540 112.181  0.00  0.00    -0.047 C 
ATOM      6  C   LIG d   1       1.833  84.558 111.341  0.00  0.00     0.091 C 
ENDROOT
BRANCH   1   7
ATOM      7  O   LIG d   1       3.406  83.089 110.169  0.00  0.00    -0.368 OA
BRANCH   7   8
ATOM      8  C   LIG d   1       3.147  82.045 109.198  0.00  0.00     0.119 C 
BRANCH   8   9
ATOM      9  C   LIG d   1       4.359  81.093 109.208  0.00  0.00     0.028 C 
ATOM     10  C   LIG d   1       3.965  79.646 109.549  0.00  0.00     0.006 C 
ENDBRANCH   8   9
BRANCH   8  11
ATOM     11  C   LIG d   1       3.087  82.610 107.776  0.00  0.00     0.028 C 
ATOM     12  C   LIG d   1       1.771  83.347 107.482  0.00  0.00     0.006 C 
ENDBRANCH   8  11
ENDBRANCH   7   8
ENDBRANCH   1   7
BRANCH   6  13
ATOM     13  N   LIG d   1       2.843  85.508 111.876  0.00  0.00    -0.311 N 
ATOM     14  C   LIG d   1       2.908  86.788 111.517  0.00  0.00     0.210 C 
ATOM     15  C   LIG d   1       4.037  87.588 112.173  0.00  0.00     0.109 C 
ATOM     16  O   LIG d   1       2.117  87.346 110.740  0.00  0.00    -0.276 OA
ATOM     17  H   LIG d   1       3.504  85.147 112.536  0.00  0.00     0.149 HD
ENDBRANCH   6  13
BRANCH   5  18
ATOM     18  N   LIG d   1      -0.182  85.828 112.164  0.00  0.00     0.381 N 
ATOM     19  H   LIG d   1      -1.044  85.743 112.664  0.00  0.00    -0.090 HD
ATOM     20  H   LIG d   1      -0.392  86.071 111.212  0.00  0.00    -0.090 HD
ATOM     21  H   LIG d   1       0.382  86.538 112.578  0.00  0.00    -0.090 HD
ENDBRANCH   5  18
BRANCH   3  22
ATOM     22  C   LIG d   1      -0.592  81.093 111.578  0.00  0.00     0.382 C 
ATOM     23  O   LIG d   1      -0.412  80.119 110.808  0.00  0.00    -0.241 OA
ATOM     24  O   LIG d   1      -1.513  81.051 112.415  0.00  0.00    -0.241 OA
ENDBRANCH   3  22
TORSDOF 7
ENDMDL
MODEL 4
REMARK VINA RESULT:      -6.1      2.450      4.739
REMARK  7 active torsions:
REMARK  status: ('A' for Active; 'I' for Inactive)
REMARK    1  A    between atoms: C_2  and  C_3 
REMARK    2  A    between atoms: C_3  and  O_6 
REMARK    3  A    between atoms: C_3  and  C_4 
REMARK    4  A    between atoms: C_7  and  O_6 
REMARK    5  A    between atoms: C_9  and  C_10 
REMARK    6  A    between atoms: N_15  and  C_14 
REMARK    7  A    between atoms: N_20  and  C_19 
REMARK       I    between atoms: C_22  and  N_20 
ROOT
ATOM      1  C   LIG d   1       1.295  81.979 111.408  0.00  0.00     0.161 C 
ATOM      2  C   LIG d   1       1.995  82.519 110.316  0.00  0.00     0.016 C 
ATOM      3  C   LIG d   1       2.247  81.804 109.123  0.00  0.00     0.038 C 
ATOM      4  C   LIG d   1       1.681  80.543 108.880  0.00  0.00     0.028 C 
ATOM      5  C   LIG d   1       1.390  79.755 110.153  0.00  0.00    -0.047 C 
ATOM      6  C   LIG d   1       0.574  80.645 111.118  0.00  0.00     0.091 C 
ENDROOT
BRANCH   1   7
ATOM      7  O   LIG d   1       0.362  82.951 111.919  0.00  0.00    -0.368 OA
BRANCH   7   8
ATOM      8  C   LIG d   1       0.622  84.332 111.565  0.00  0.00     0.119 C 
BRANCH   8   9
ATOM      9  C   LIG d   1       0.825  85.116 112.876  0.00  0.00     0.028 C 
ATOM     10  C   LIG d   1       2.081  86.002 112.841  0.00  0.00     0.006 C 
ENDBRANCH   8   9
BRANCH   8  11
ATOM     11  C   LIG d   1      -0.596  84.973 110.893  0.00  0.00     0.028 C 
ATOM     12  C   LIG d   1      -0.210  85.967 109.786  0.00  0.00     0.006 C 
ENDBRANCH   8  11
ENDBRANCH   7   8
ENDBRANCH   1   7
BRANCH   6  13
ATOM     13  N   LIG d   1       0.318  79.980 112.422  0.00  0.00    -0.311 N 
ATOM     14  C   LIG d   1      -0.895  79.615 112.834  0.00  0.00     0.210 C 
ATOM     15  C   LIG d   1      -0.939  78.963 114.219  0.00  0.00     0.109 C 
ATOM     16  O   LIG d   1      -1.934  79.741 112.169  0.00  0.00    -0.276 OA
ATOM     17  H   LIG d   1       1.110  79.812 113.012  0.00  0.00     0.149 HD
ENDBRANCH   6  13
BRANCH   5  18
ATOM     18  N   LIG d   1       0.678  78.524 109.761  0.00  0.00     0.381 N 
ATOM     19  H   LIG d   1       1.265  77.964 109.176  0.00  0.00    -0.090 HD
ATOM     20  H   LIG d   1      -0.142  78.775 109.237  0.00  0.00    -0.090 HD
ATOM     21  H   LIG d   1       0.417  78.008 110.572  0.00  0.00    -0.090 HD
ENDBRANCH   5  18
BRANCH   3  22
ATOM     22  C   LIG d   1       3.107  82.334 108.172  0.00  0.00     0.382 C 
ATOM     23  O   LIG d   1       4.331  82.442 108.426  0.00  0.00    -0.241 OA
ATOM     24  O   LIG d   1       2.667  82.745 107.082  0.00  0.00    -0.241 OA
ENDBRANCH   3  22
TORSDOF 7
ENDMDL
MODEL 5
REMARK VINA RESULT:      -6.1      1.551      2.435
REMARK  7 active torsions:
REMARK  status: ('A' for Active; 'I' for Inactive)
REMARK    1  A    between atoms: C_2  and  C_3 
REMARK    2  A    between atoms: C_3  and  O_6 
REMARK    3  A    between atoms: C_3  and  C_4 
REMARK    4  A    between atoms: C_7  and  O_6 
REMARK    5  A    between atoms: C_9  and  C_10 
REMARK    6  A    between atoms: N_15  and  C_14 
REMARK    7  A    between atoms: N_20  and  C_19 
REMARK       I    between atoms: C_22  and  N_20 
ROOT
ATOM      1  C   LIG d   1       1.650  83.025 109.995  0.00  0.00     0.161 C 
ATOM      2  C   LIG d   1       1.806  84.392 110.278  0.00  0.00     0.016 C 
ATOM      3  C   LIG d   1       0.937  85.115 111.127  0.00  0.00     0.038 C 
ATOM      4  C   LIG d   1      -0.066  84.481 111.875  0.00  0.00     0.028 C 
ATOM      5  C   LIG d   1      -0.578  83.195 111.236  0.00  0.00    -0.047 C 
ATOM      6  C   LIG d   1       0.628  82.292 110.890  0.00  0.00     0.091 C 
ENDROOT
BRANCH   1   7
ATOM      7  O   LIG d   1       2.930  82.365 110.052  0.00  0.00    -0.368 OA
BRANCH   7   8
ATOM      8  C   LIG d   1       3.332  81.649 108.858  0.00  0.00     0.119 C 
BRANCH   8   9
ATOM      9  C   LIG d   1       4.039  80.357 109.309  0.00  0.00     0.028 C 
ATOM     10  C   LIG d   1       3.103  79.136 109.283  0.00  0.00     0.006 C 
ENDBRANCH   8   9
BRANCH   8  11
ATOM     11  C   LIG d   1       4.384  82.432 108.067  0.00  0.00     0.028 C 
ATOM     12  C   LIG d   1       5.208  83.383 108.949  0.00  0.00     0.006 C 
ENDBRANCH   8  11
ENDBRANCH   7   8
ENDBRANCH   1   7
BRANCH   6  13
ATOM     13  N   LIG d   1       0.222  81.049 110.183  0.00  0.00    -0.311 N 
ATOM     14  C   LIG d   1      -0.074  79.912 110.811  0.00  0.00     0.210 C 
ATOM     15  C   LIG d   1      -0.450  78.745 109.893  0.00  0.00     0.109 C 
ATOM     16  O   LIG d   1      -0.093  79.769 112.043  0.00  0.00    -0.276 OA
ATOM     17  H   LIG d   1       0.180  81.085 109.184  0.00  0.00     0.149 HD
ENDBRANCH   6  13
BRANCH   5  18
ATOM     18  N   LIG d   1      -1.516  82.568 112.185  0.00  0.00     0.381 N 
ATOM     19  H   LIG d   1      -1.009  82.017 112.849  0.00  0.00    -0.090 HD
ATOM     20  H   LIG d   1      -2.135  81.960 111.677  0.00  0.00    -0.090 HD
ATOM     21  H   LIG d   1      -2.043  83.269 112.658  0.00  0.00    -0.090 HD
ENDBRANCH   5  18
BRANCH   3  22
ATOM     22  C   LIG d   1       1.041  86.496 111.202  0.00  0.00     0.382 C 
ATOM     23  O   LIG d   1       0.262  87.144 111.942  0.00  0.00    -0.241 OA
ATOM     24  O   LIG d   1       1.876  87.105 110.507  0.00  0.00    -0.241 OA
ENDBRANCH   3  22
TORSDOF 7
ENDMDL
MODEL 6
REMARK VINA RESULT:      -5.7      2.518      5.181
REMARK  7 active torsions:
REMARK  status: ('A' for Active; 'I' for Inactive)
REMARK    1  A    between atoms: C_2  and  C_3 
REMARK    2  A    between atoms: C_3  and  O_6 
REMARK    3  A    between atoms: C_3  and  C_4 
REMARK    4  A    between atoms: C_7  and  O_6 
REMARK    5  A    between atoms: C_9  and  C_10 
REMARK    6  A    between atoms: N_15  and  C_14 
REMARK    7  A    between atoms: N_20  and  C_19 
REMARK       I    between atoms: C_22  and  N_20 
ROOT
ATOM      1  C   LIG d   1       3.549  84.623 110.837  0.00  0.00     0.161 C 
ATOM      2  C   LIG d   1       3.381  84.084 109.551  0.00  0.00     0.016 C 
ATOM      3  C   LIG d   1       2.673  82.888 109.295  0.00  0.00     0.038 C 
ATOM      4  C   LIG d   1       1.950  82.225 110.298  0.00  0.00     0.028 C 
ATOM      5  C   LIG d   1       2.508  82.454 111.698  0.00  0.00    -0.047 C 
ATOM      6  C   LIG d   1       2.674  83.974 111.930  0.00  0.00     0.091 C 
ENDROOT
BRANCH   1   7
ATOM      7  O   LIG d   1       3.332  86.047 110.802  0.00  0.00    -0.368 OA
BRANCH   7   8
ATOM      8  C   LIG d   1       2.040  86.507 111.268  0.00  0.00     0.119 C 
BRANCH   8   9
ATOM      9  C   LIG d   1       1.153  86.728 110.027  0.00  0.00     0.028 C 
ATOM     10  C   LIG d   1      -0.115  85.856 110.049  0.00  0.00     0.006 C 
ENDBRANCH   8   9
BRANCH   8  11
ATOM     11  C   LIG d   1       2.145  87.879 111.941  0.00  0.00     0.028 C 
ATOM     12  C   LIG d   1       3.482  88.084 112.670  0.00  0.00     0.006 C 
ENDBRANCH   8  11
ENDBRANCH   7   8
ENDBRANCH   1   7
BRANCH   6  13
ATOM     13  N   LIG d   1       3.294  84.282 113.245  0.00  0.00    -0.311 N 
ATOM     14  C   LIG d   1       2.591  84.612 114.327  0.00  0.00     0.210 C 
ATOM     15  C   LIG d   1       3.428  84.911 115.575  0.00  0.00     0.109 C 
ATOM     16  O   LIG d   1       1.353  84.655 114.380  0.00  0.00    -0.276 OA
ATOM     17  H   LIG d   1       4.293  84.241 113.299  0.00  0.00     0.149 HD
ENDBRANCH   6  13
BRANCH   5  18
ATOM     18  N   LIG d   1       1.581  81.822 112.656  0.00  0.00     0.381 N 
ATOM     19  H   LIG d   1       0.940  81.230 112.167  0.00  0.00    -0.090 HD
ATOM     20  H   LIG d   1       1.055  82.540 113.122  0.00  0.00    -0.090 HD
ATOM     21  H   LIG d   1       2.093  81.288 113.324  0.00  0.00    -0.090 HD
ENDBRANCH   5  18
BRANCH   3  22
ATOM     22  C   LIG d   1       2.715  82.321 108.030  0.00  0.00     0.382 C 
ATOM     23  O   LIG d   1       3.290  81.219 107.856  0.00  0.00    -0.241 OA
ATOM     24  O   LIG d   1       2.225  82.918 107.053  0.00  0.00    -0.241 OA
ENDBRANCH   3  22
TORSDOF 7
ENDMDL
MODEL 7
REMARK VINA RESULT:      -5.6      2.222      2.939
REMARK  7 active torsions:
REMARK  status: ('A' for Active; 'I' for Inactive)
REMARK    1  A    between atoms: C_2  and  C_3 
REMARK    2  A    between atoms: C_3  and  O_6 
REMARK    3  A    between atoms: C_3  and  C_4 
REMARK    4  A    between atoms: C_7  and  O_6 
REMARK    5  A    between atoms: C_9  and  C_10 
REMARK    6  A    between atoms: N_15  and  C_14 
REMARK    7  A    between atoms: N_20  and  C_19 
REMARK       I    between atoms: C_22  and  N_20 
ROOT
ATOM      1  C   LIG d   1       1.209  84.955 110.804  0.00  0.00     0.161 C 
ATOM      2  C   LIG d   1       1.726  86.252 110.954  0.00  0.00     0.016 C 
ATOM      3  C   LIG d   1       2.339  86.714 112.142  0.00  0.00     0.038 C 
ATOM      4  C   LIG d   1       2.613  85.854 113.216  0.00  0.00     0.028 C 
ATOM      5  C   LIG d   1       1.658  84.669 113.303  0.00  0.00    -0.047 C 
ATOM      6  C   LIG d   1       1.599  83.970 111.926  0.00  0.00     0.091 C 
ENDROOT
BRANCH   1   7
ATOM      7  O   LIG d   1       1.587  84.424 109.518  0.00  0.00    -0.368 OA
BRANCH   7   8
ATOM      8  C   LIG d   1       2.511  83.308 109.535  0.00  0.00     0.119 C 
BRANCH   8   9
ATOM      9  C   LIG d   1       3.936  83.887 109.450  0.00  0.00     0.028 C 
ATOM     10  C   LIG d   1       4.999  82.797 109.230  0.00  0.00     0.006 C 
ENDBRANCH   8   9
BRANCH   8  11
ATOM     11  C   LIG d   1       2.352  82.435 108.287  0.00  0.00     0.028 C 
ATOM     12  C   LIG d   1       1.890  83.231 107.057  0.00  0.00     0.006 C 
ENDBRANCH   8  11
ENDBRANCH   7   8
ENDBRANCH   1   7
BRANCH   6  13
ATOM     13  N   LIG d   1       0.623  82.849 111.900  0.00  0.00    -0.311 N 
ATOM     14  C   LIG d   1       0.958  81.580 112.124  0.00  0.00     0.210 C 
ATOM     15  C   LIG d   1      -0.198  80.580 112.030  0.00  0.00     0.109 C 
ATOM     16  O   LIG d   1       2.098  81.191 112.422  0.00  0.00    -0.276 OA
ATOM     17  H   LIG d   1      -0.330  83.079 111.697  0.00  0.00     0.149 HD
ENDBRANCH   6  13
BRANCH   5  18
ATOM     18  N   LIG d   1       2.142  83.785 114.381  0.00  0.00     0.381 N 
ATOM     19  H   LIG d   1       1.941  84.194 115.271  0.00  0.00    -0.090 HD
ATOM     20  H   LIG d   1       3.138  83.686 114.297  0.00  0.00    -0.090 HD
ATOM     21  H   LIG d   1       1.705  82.892 114.311  0.00  0.00    -0.090 HD
ENDBRANCH   5  18
BRANCH   3  22
ATOM     22  C   LIG d   1       2.648  88.058 112.279  0.00  0.00     0.382 C 
ATOM     23  O   LIG d   1       3.784  88.477 111.951  0.00  0.00    -0.241 OA
ATOM     24  O   LIG d   1       1.819  88.850 112.767  0.00  0.00    -0.241 OA
ENDBRANCH   3  22
TORSDOF 7
ENDMDL
MODEL 8
REMARK VINA RESULT:      -5.5      3.116      4.411
REMARK  7 active torsions:
REMARK  status: ('A' for Active; 'I' for Inactive)
REMARK    1  A    between atoms: C_2  and  C_3 
REMARK    2  A    between atoms: C_3  and  O_6 
REMARK    3  A    between atoms: C_3  and  C_4 
REMARK    4  A    between atoms: C_7  and  O_6 
REMARK    5  A    between atoms: C_9  and  C_10 
REMARK    6  A    between atoms: N_15  and  C_14 
REMARK    7  A    between atoms: N_20  and  C_19 
REMARK       I    between atoms: C_22  and  N_20 
ROOT
ATOM      1  C   LIG d   1       3.888  85.442 112.251  0.00  0.00     0.161 C 
ATOM      2  C   LIG d   1       3.783  86.750 112.751  0.00  0.00     0.016 C 
ATOM      3  C   LIG d   1       2.831  87.687 112.288  0.00  0.00     0.038 C 
ATOM      4  C   LIG d   1       1.813  87.327 111.392  0.00  0.00     0.028 C 
ATOM      5  C   LIG d   1       2.189  86.162 110.483  0.00  0.00    -0.047 C 
ATOM      6  C   LIG d   1       2.715  84.997 111.353  0.00  0.00     0.091 C 
ENDROOT
BRANCH   1   7
ATOM      7  O   LIG d   1       4.064  84.514 113.340  0.00  0.00    -0.368 OA
BRANCH   7   8
ATOM      8  C   LIG d   1       3.372  84.838 114.571  0.00  0.00     0.119 C 
BRANCH   8   9
ATOM      9  C   LIG d   1       4.391  84.715 115.721  0.00  0.00     0.028 C 
ATOM     10  C   LIG d   1       4.615  86.049 116.452  0.00  0.00     0.006 C 
ENDBRANCH   8   9
BRANCH   8  11
ATOM     11  C   LIG d   1       2.281  83.810 114.884  0.00  0.00     0.028 C 
ATOM     12  C   LIG d   1       2.669  82.857 116.025  0.00  0.00     0.006 C 
ENDBRANCH   8  11
ENDBRANCH   7   8
ENDBRANCH   1   7
BRANCH   6  13
ATOM     13  N   LIG d   1       3.184  83.847 110.536  0.00  0.00    -0.311 N 
ATOM     14  C   LIG d   1       2.409  82.813 110.213  0.00  0.00     0.210 C 
ATOM     15  C   LIG d   1       3.097  81.725 109.382  0.00  0.00     0.109 C 
ATOM     16  O   LIG d   1       1.210  82.708 110.509  0.00  0.00    -0.276 OA
ATOM     17  H   LIG d   1       4.136  83.866 110.227  0.00  0.00     0.149 HD
ENDBRANCH   6  13
BRANCH   5  18
ATOM     18  N   LIG d   1       0.992  85.804 109.699  0.00  0.00     0.381 N 
ATOM     19  H   LIG d   1       1.198  85.862 108.721  0.00  0.00    -0.090 HD
ATOM     20  H   LIG d   1       0.260  86.460 109.906  0.00  0.00    -0.090 HD
ATOM     21  H   LIG d   1       0.697  84.881 109.930  0.00  0.00    -0.090 HD
ENDBRANCH   5  18
BRANCH   3  22
ATOM     22  C   LIG d   1       2.916  89.010 112.692  0.00  0.00     0.382 C 
ATOM     23  O   LIG d   1       4.028  89.592 112.702  0.00  0.00    -0.241 OA
ATOM     24  O   LIG d   1       1.902  89.617 113.088  0.00  0.00    -0.241 OA
ENDBRANCH   3  22
TORSDOF 7
ENDMDL
MODEL 9
REMARK VINA RESULT:      -5.3      2.936      4.313
REMARK  7 active torsions:
REMARK  status: ('A' for Active; 'I' for Inactive)
REMARK    1  A    between atoms: C_2  and  C_3 
REMARK    2  A    between atoms: C_3  and  O_6 
REMARK    3  A    between atoms: C_3  and  C_4 
REMARK    4  A    between atoms: C_7  and  O_6 
REMARK    5  A    between atoms: C_9  and  C_10 
REMARK    6  A    between atoms: N_15  and  C_14 
REMARK    7  A    between atoms: N_20  and  C_19 
REMARK       I    between atoms: C_22  and  N_20 
ROOT
ATOM      1  C   LIG d   1       2.577  84.334 112.001  0.00  0.00     0.161 C 
ATOM      2  C   LIG d   1       1.665  84.588 110.963  0.00  0.00     0.016 C 
ATOM      3  C   LIG d   1       1.128  85.868 110.695  0.00  0.00     0.038 C 
ATOM      4  C   LIG d   1       1.585  87.017 111.357  0.00  0.00     0.028 C 
ATOM      5  C   LIG d   1       2.133  86.735 112.752  0.00  0.00    -0.047 C 
ATOM      6  C   LIG d   1       3.172  85.595 112.662  0.00  0.00     0.091 C 
ENDROOT
BRANCH   1   7
ATOM      7  O   LIG d   1       3.631  83.473 111.525  0.00  0.00    -0.368 OA
BRANCH   7   8
ATOM      8  C   LIG d   1       3.380  82.790 110.272  0.00  0.00     0.119 C 
BRANCH   8   9
ATOM      9  C   LIG d   1       3.320  81.280 110.572  0.00  0.00     0.028 C 
ATOM     10  C   LIG d   1       1.876  80.762 110.690  0.00  0.00     0.006 C 
ENDBRANCH   8   9
BRANCH   8  11
ATOM     11  C   LIG d   1       4.549  82.964 109.299  0.00  0.00     0.028 C 
ATOM     12  C   LIG d   1       4.340  82.211 107.975  0.00  0.00     0.006 C 
ENDBRANCH   8  11
ENDBRANCH   7   8
ENDBRANCH   1   7
BRANCH   6  13
ATOM     13  N   LIG d   1       3.696  85.199 113.995  0.00  0.00    -0.311 N 
ATOM     14  C   LIG d   1       2.977  84.536 114.898  0.00  0.00     0.210 C 
ATOM     15  C   LIG d   1       3.702  84.244 116.216  0.00  0.00     0.109 C 
ATOM     16  O   LIG d   1       1.817  84.133 114.721  0.00  0.00    -0.276 OA
ATOM     17  H   LIG d   1       4.639  85.458 114.210  0.00  0.00     0.149 HD
ENDBRANCH   6  13
BRANCH   5  18
ATOM     18  N   LIG d   1       2.699  87.994 113.271  0.00  0.00     0.381 N 
ATOM     19  H   LIG d   1       2.115  88.354 113.999  0.00  0.00    -0.090 HD
ATOM     20  H   LIG d   1       2.728  88.669 112.527  0.00  0.00    -0.090 HD
ATOM     21  H   LIG d   1       3.618  87.836 113.621  0.00  0.00    -0.090 HD
ENDBRANCH   5  18
BRANCH   3  22
ATOM     22  C   LIG d   1       0.092  86.001 109.783  0.00  0.00     0.382 C 
ATOM     23  O   LIG d   1      -1.099  85.908 110.168  0.00  0.00    -0.241 OA
ATOM     24  O   LIG d   1       0.334  86.168 108.573  0.00  0.00    -0.241 OA
ENDBRANCH   3  22
TORSDOF 7
ENDMDL
