MODEL 1
REMARK VINA RESULT:      -5.8      0.000      0.000
REMARK  7 active torsions:
REMARK  status: ('A' for Active; 'I' for Inactive)
REMARK    1  A    between atoms: C_2  and  C_3 
REMARK    2  A    between atoms: C_3  and  O_6 
REMARK    3  A    between atoms: C_3  and  C_4 
REMARK    4  A    between atoms: C_7  and  O_6 
REMARK    5  A    between atoms: C_9  and  C_10 
REMARK    6  A    between atoms: N_15  and  C_14 
REMARK    7  A    between atoms: N_20  and  C_19 
REMARK       I    between atoms: C_22  and  N_20 
ROOT
ATOM      1  C   LIG d   1      -6.657  75.536 117.501  0.00  0.00     0.161 C 
ATOM      2  C   LIG d   1      -6.953  74.255 117.004  0.00  0.00     0.016 C 
ATOM      3  C   LIG d   1      -8.266  73.815 116.721  0.00  0.00     0.038 C 
ATOM      4  C   LIG d   1      -9.367  74.683 116.774  0.00  0.00     0.028 C 
ATOM      5  C   LIG d   1      -9.182  75.836 117.754  0.00  0.00    -0.047 C 
ATOM      6  C   LIG d   1      -7.834  76.533 117.460  0.00  0.00     0.091 C 
ENDROOT
BRANCH   1   7
ATOM      7  O   LIG d   1      -5.516  76.078 116.807  0.00  0.00    -0.368 OA
BRANCH   7   8
ATOM      8  C   LIG d   1      -4.802  75.161 115.942  0.00  0.00     0.119 C 
BRANCH   8   9
ATOM      9  C   LIG d   1      -3.365  75.038 116.485  0.00  0.00     0.028 C 
ATOM     10  C   LIG d   1      -2.354  74.660 115.389  0.00  0.00     0.006 C 
ENDBRANCH   8   9
BRANCH   8  11
ATOM     11  C   LIG d   1      -4.654  75.730 114.528  0.00  0.00     0.028 C 
ATOM     12  C   LIG d   1      -5.995  75.834 113.784  0.00  0.00     0.006 C 
ENDBRANCH   8  11
ENDBRANCH   7   8
ENDBRANCH   1   7
BRANCH   6  13
ATOM     13  N   LIG d   1      -7.535  77.621 118.427  0.00  0.00    -0.311 N 
ATOM     14  C   LIG d   1      -7.083  78.820 118.065  0.00  0.00     0.210 C 
ATOM     15  C   LIG d   1      -6.820  79.789 119.223  0.00  0.00     0.109 C 
ATOM     16  O   LIG d   1      -6.904  79.184 116.893  0.00  0.00    -0.276 OA
ATOM     17  H   LIG d   1      -7.682  77.422 119.398  0.00  0.00     0.149 HD
ENDBRANCH   6  13
BRANCH   5  18
ATOM     18  N   LIG d   1     -10.342  76.736 117.607  0.00  0.00     0.381 N 
ATOM     19  H   LIG d   1     -10.600  77.104 118.501  0.00  0.00    -0.090 HD
ATOM     20  H   LIG d   1     -11.118  76.210 117.247  0.00  0.00    -0.090 HD
ATOM     21  H   LIG d   1     -10.119  77.481 116.985  0.00  0.00    -0.090 HD
ENDBRANCH   5  18
BRANCH   3  22
ATOM     22  C   LIG d   1      -8.494  72.481 116.419  0.00  0.00     0.382 C 
ATOM     23  O   LIG d   1      -9.613  71.966 116.656  0.00  0.00    -0.241 OA
ATOM     24  O   LIG d   1      -7.580  71.774 115.953  0.00  0.00    -0.241 OA
ENDBRANCH   3  22
TORSDOF 7
ENDMDL
MODEL 2
REMARK VINA RESULT:      -5.8      2.049      4.815
REMARK  7 active torsions:
REMARK  status: ('A' for Active; 'I' for Inactive)
REMARK    1  A    between atoms: C_2  and  C_3 
REMARK    2  A    between atoms: C_3  and  O_6 
REMARK    3  A    between atoms: C_3  and  C_4 
REMARK    4  A    between atoms: C_7  and  O_6 
REMARK    5  A    between atoms: C_9  and  C_10 
REMARK    6  A    between atoms: N_15  and  C_14 
REMARK    7  A    between atoms: N_20  and  C_19 
REMARK       I    between atoms: C_22  and  N_20 
ROOT
ATOM      1  C   LIG d   1      -6.006  75.826 116.433  0.00  0.00     0.161 C 
ATOM      2  C   LIG d   1      -4.911  75.007 116.111  0.00  0.00     0.016 C 
ATOM      3  C   LIG d   1      -3.570  75.357 116.390  0.00  0.00     0.038 C 
ATOM      4  C   LIG d   1      -3.241  76.489 117.151  0.00  0.00     0.028 C 
ATOM      5  C   LIG d   1      -4.279  77.602 117.059  0.00  0.00    -0.047 C 
ATOM      6  C   LIG d   1      -5.676  77.013 117.363  0.00  0.00     0.091 C 
ENDROOT
BRANCH   1   7
ATOM      7  O   LIG d   1      -7.064  75.027 116.998  0.00  0.00    -0.368 OA
BRANCH   7   8
ATOM      8  C   LIG d   1      -8.120  74.632 116.088  0.00  0.00     0.119 C 
BRANCH   8   9
ATOM      9  C   LIG d   1      -9.306  75.591 116.310  0.00  0.00     0.028 C 
ATOM     10  C   LIG d   1      -9.558  75.876 117.800  0.00  0.00     0.006 C 
ENDBRANCH   8   9
BRANCH   8  11
ATOM     11  C   LIG d   1      -8.656  73.238 116.428  0.00  0.00     0.028 C 
ATOM     12  C   LIG d   1      -7.573  72.150 116.359  0.00  0.00     0.006 C 
ENDBRANCH   8  11
ENDBRANCH   7   8
ENDBRANCH   1   7
BRANCH   6  13
ATOM     13  N   LIG d   1      -6.760  78.018 117.212  0.00  0.00    -0.311 N 
ATOM     14  C   LIG d   1      -7.225  78.751 118.222  0.00  0.00     0.210 C 
ATOM     15  C   LIG d   1      -8.359  79.714 117.853  0.00  0.00     0.109 C 
ATOM     16  O   LIG d   1      -6.785  78.720 119.380  0.00  0.00    -0.276 OA
ATOM     17  H   LIG d   1      -7.154  78.131 116.298  0.00  0.00     0.149 HD
ENDBRANCH   6  13
BRANCH   5  18
ATOM     18  N   LIG d   1      -3.881  78.662 118.005  0.00  0.00     0.381 N 
ATOM     19  H   LIG d   1      -3.598  78.252 118.873  0.00  0.00    -0.090 HD
ATOM     20  H   LIG d   1      -4.673  79.255 118.181  0.00  0.00    -0.090 HD
ATOM     21  H   LIG d   1      -3.133  79.197 117.623  0.00  0.00    -0.090 HD
ENDBRANCH   5  18
BRANCH   3  22
ATOM     22  C   LIG d   1      -2.537  74.590 115.871  0.00  0.00     0.382 C 
ATOM     23  O   LIG d   1      -2.424  74.450 114.630  0.00  0.00    -0.241 OA
ATOM     24  O   LIG d   1      -1.745  74.000 116.630  0.00  0.00    -0.241 OA
ENDBRANCH   3  22
TORSDOF 7
ENDMDL
MODEL 3
REMARK VINA RESULT:      -5.6      2.439      4.980
REMARK  7 active torsions:
REMARK  status: ('A' for Active; 'I' for Inactive)
REMARK    1  A    between atoms: C_2  and  C_3 
REMARK    2  A    between atoms: C_3  and  O_6 
REMARK    3  A    between atoms: C_3  and  C_4 
REMARK    4  A    between atoms: C_7  and  O_6 
REMARK    5  A    between atoms: C_9  and  C_10 
REMARK    6  A    between atoms: N_15  and  C_14 
REMARK    7  A    between atoms: N_20  and  C_19 
REMARK       I    between atoms: C_22  and  N_20 
ROOT
ATOM      1  C   LIG d   1      -7.431  76.901 117.559  0.00  0.00     0.161 C 
ATOM      2  C   LIG d   1      -8.669  77.519 117.802  0.00  0.00     0.016 C 
ATOM      3  C   LIG d   1      -8.826  78.918 117.938  0.00  0.00     0.038 C 
ATOM      4  C   LIG d   1      -7.774  79.810 117.688  0.00  0.00     0.028 C 
ATOM      5  C   LIG d   1      -6.395  79.206 117.935  0.00  0.00    -0.047 C 
ATOM      6  C   LIG d   1      -6.291  77.866 117.172  0.00  0.00     0.091 C 
ENDROOT
BRANCH   1   7
ATOM      7  O   LIG d   1      -7.585  75.879 116.554  0.00  0.00    -0.368 OA
BRANCH   7   8
ATOM      8  C   LIG d   1      -7.730  74.522 117.041  0.00  0.00     0.119 C 
BRANCH   8   9
ATOM      9  C   LIG d   1      -6.768  73.633 116.230  0.00  0.00     0.028 C 
ATOM     10  C   LIG d   1      -5.949  74.437 115.207  0.00  0.00     0.006 C 
ENDBRANCH   8   9
BRANCH   8  11
ATOM     11  C   LIG d   1      -9.131  73.973 116.753  0.00  0.00     0.028 C 
ATOM     12  C   LIG d   1      -9.136  72.457 116.499  0.00  0.00     0.006 C 
ENDBRANCH   8  11
ENDBRANCH   7   8
ENDBRANCH   1   7
BRANCH   6  13
ATOM     13  N   LIG d   1      -5.005  77.167 117.428  0.00  0.00    -0.311 N 
ATOM     14  C   LIG d   1      -3.945  77.266 116.628  0.00  0.00     0.210 C 
ATOM     15  C   LIG d   1      -2.725  76.448 117.064  0.00  0.00     0.109 C 
ATOM     16  O   LIG d   1      -3.887  77.980 115.615  0.00  0.00    -0.276 OA
ATOM     17  H   LIG d   1      -4.953  76.591 118.245  0.00  0.00     0.149 HD
ENDBRANCH   6  13
BRANCH   5  18
ATOM     18  N   LIG d   1      -5.391  80.196 117.504  0.00  0.00     0.381 N 
ATOM     19  H   LIG d   1      -5.105  80.002 116.565  0.00  0.00    -0.090 HD
ATOM     20  H   LIG d   1      -4.585  80.122 118.100  0.00  0.00    -0.090 HD
ATOM     21  H   LIG d   1      -5.772  81.115 117.560  0.00  0.00    -0.090 HD
ENDBRANCH   5  18
BRANCH   3  22
ATOM     22  C   LIG d   1     -10.039  79.434 118.368  0.00  0.00     0.382 C 
ATOM     23  O   LIG d   1     -10.981  78.660 118.664  0.00  0.00    -0.241 OA
ATOM     24  O   LIG d   1     -10.219  80.666 118.419  0.00  0.00    -0.241 OA
ENDBRANCH   3  22
TORSDOF 7
ENDMDL
MODEL 4
REMARK VINA RESULT:      -5.4     15.042     18.191
REMARK  7 active torsions:
REMARK  status: ('A' for Active; 'I' for Inactive)
REMARK    1  A    between atoms: C_2  and  C_3 
REMARK    2  A    between atoms: C_3  and  O_6 
REMARK    3  A    between atoms: C_3  and  C_4 
REMARK    4  A    between atoms: C_7  and  O_6 
REMARK    5  A    between atoms: C_9  and  C_10 
REMARK    6  A    between atoms: N_15  and  C_14 
REMARK    7  A    between atoms: N_20  and  C_19 
REMARK       I    between atoms: C_22  and  N_20 
ROOT
ATOM      1  C   LIG d   1      -6.554  93.314 117.623  0.00  0.00     0.161 C 
ATOM      2  C   LIG d   1      -7.229  92.328 116.885  0.00  0.00     0.016 C 
ATOM      3  C   LIG d   1      -6.705  91.036 116.650  0.00  0.00     0.038 C 
ATOM      4  C   LIG d   1      -5.528  90.590 117.269  0.00  0.00     0.028 C 
ATOM      5  C   LIG d   1      -4.559  91.717 117.612  0.00  0.00    -0.047 C 
ATOM      6  C   LIG d   1      -5.319  92.809 118.399  0.00  0.00     0.091 C 
ENDROOT
BRANCH   1   7
ATOM      7  O   LIG d   1      -7.474  93.971 118.517  0.00  0.00    -0.368 OA
BRANCH   7   8
ATOM      8  C   LIG d   1      -7.741  95.368 118.243  0.00  0.00     0.119 C 
BRANCH   8   9
ATOM      9  C   LIG d   1      -7.102  96.193 119.377  0.00  0.00     0.028 C 
ATOM     10  C   LIG d   1      -6.187  97.310 118.846  0.00  0.00     0.006 C 
ENDBRANCH   8   9
BRANCH   8  11
ATOM     11  C   LIG d   1      -9.240  95.673 118.315  0.00  0.00     0.028 C 
ATOM     12  C   LIG d   1      -9.780  95.675 119.754  0.00  0.00     0.006 C 
ENDBRANCH   8  11
ENDBRANCH   7   8
ENDBRANCH   1   7
BRANCH   6  13
ATOM     13  N   LIG d   1      -4.465  93.987 118.702  0.00  0.00    -0.311 N 
ATOM     14  C   LIG d   1      -3.813  94.143 119.852  0.00  0.00     0.210 C 
ATOM     15  C   LIG d   1      -3.005  95.440 119.967  0.00  0.00     0.109 C 
ATOM     16  O   LIG d   1      -3.801  93.316 120.776  0.00  0.00    -0.276 OA
ATOM     17  H   LIG d   1      -4.394  94.693 117.995  0.00  0.00     0.149 HD
ENDBRANCH   6  13
BRANCH   5  18
ATOM     18  N   LIG d   1      -3.442  91.127 118.374  0.00  0.00     0.381 N 
ATOM     19  H   LIG d   1      -3.320  91.623 119.235  0.00  0.00    -0.090 HD
ATOM     20  H   LIG d   1      -2.598  91.217 117.836  0.00  0.00    -0.090 HD
ATOM     21  H   LIG d   1      -3.626  90.166 118.560  0.00  0.00    -0.090 HD
ENDBRANCH   5  18
BRANCH   3  22
ATOM     22  C   LIG d   1      -7.340  90.189 115.755  0.00  0.00     0.382 C 
ATOM     23  O   LIG d   1      -8.395  89.598 116.091  0.00  0.00    -0.241 OA
ATOM     24  O   LIG d   1      -6.848  89.974 114.631  0.00  0.00    -0.241 OA
ENDBRANCH   3  22
TORSDOF 7
ENDMDL
MODEL 5
REMARK VINA RESULT:      -5.4     15.466     18.607
REMARK  7 active torsions:
REMARK  status: ('A' for Active; 'I' for Inactive)
REMARK    1  A    between atoms: C_2  and  C_3 
REMARK    2  A    between atoms: C_3  and  O_6 
REMARK    3  A    between atoms: C_3  and  C_4 
REMARK    4  A    between atoms: C_7  and  O_6 
REMARK    5  A    between atoms: C_9  and  C_10 
REMARK    6  A    between atoms: N_15  and  C_14 
REMARK    7  A    between atoms: N_20  and  C_19 
REMARK       I    between atoms: C_22  and  N_20 
ROOT
ATOM      1  C   LIG d   1      -5.806  93.513 119.037  0.00  0.00     0.161 C 
ATOM      2  C   LIG d   1      -5.779  94.265 120.223  0.00  0.00     0.016 C 
ATOM      3  C   LIG d   1      -6.734  95.258 120.537  0.00  0.00     0.038 C 
ATOM      4  C   LIG d   1      -7.876  95.464 119.749  0.00  0.00     0.028 C 
ATOM      5  C   LIG d   1      -7.680  95.079 118.286  0.00  0.00    -0.047 C 
ATOM      6  C   LIG d   1      -7.107  93.645 118.217  0.00  0.00     0.091 C 
ENDROOT
BRANCH   1   7
ATOM      7  O   LIG d   1      -5.538  92.127 119.330  0.00  0.00    -0.368 OA
BRANCH   7   8
ATOM      8  C   LIG d   1      -4.173  91.685 119.126  0.00  0.00     0.119 C 
BRANCH   8   9
ATOM      9  C   LIG d   1      -3.609  92.467 117.924  0.00  0.00     0.028 C 
ATOM     10  C   LIG d   1      -2.226  93.074 118.216  0.00  0.00     0.006 C 
ENDBRANCH   8   9
BRANCH   8  11
ATOM     11  C   LIG d   1      -4.121  90.212 118.712  0.00  0.00     0.028 C 
ATOM     12  C   LIG d   1      -4.189  90.018 117.189  0.00  0.00     0.006 C 
ENDBRANCH   8  11
ENDBRANCH   7   8
ENDBRANCH   1   7
BRANCH   6  13
ATOM     13  N   LIG d   1      -6.806  93.222 116.825  0.00  0.00    -0.311 N 
ATOM     14  C   LIG d   1      -7.109  92.017 116.343  0.00  0.00     0.210 C 
ATOM     15  C   LIG d   1      -6.693  91.779 114.888  0.00  0.00     0.109 C 
ATOM     16  O   LIG d   1      -7.712  91.135 116.973  0.00  0.00    -0.276 OA
ATOM     17  H   LIG d   1      -6.346  93.887 116.235  0.00  0.00     0.149 HD
ENDBRANCH   6  13
BRANCH   5  18
ATOM     18  N   LIG d   1      -8.985  95.213 117.611  0.00  0.00     0.381 N 
ATOM     19  H   LIG d   1      -8.861  95.161 116.620  0.00  0.00    -0.090 HD
ATOM     20  H   LIG d   1      -9.375  96.112 117.834  0.00  0.00    -0.090 HD
ATOM     21  H   LIG d   1      -9.602  94.491 117.914  0.00  0.00    -0.090 HD
ENDBRANCH   5  18
BRANCH   3  22
ATOM     22  C   LIG d   1      -6.530  96.087 121.630  0.00  0.00     0.382 C 
ATOM     23  O   LIG d   1      -5.394  96.575 121.844  0.00  0.00    -0.241 OA
ATOM     24  O   LIG d   1      -7.457  96.317 122.430  0.00  0.00    -0.241 OA
ENDBRANCH   3  22
TORSDOF 7
ENDMDL
MODEL 6
REMARK VINA RESULT:      -5.3      2.129      4.337
REMARK  7 active torsions:
REMARK  status: ('A' for Active; 'I' for Inactive)
REMARK    1  A    between atoms: C_2  and  C_3 
REMARK    2  A    between atoms: C_3  and  O_6 
REMARK    3  A    between atoms: C_3  and  C_4 
REMARK    4  A    between atoms: C_7  and  O_6 
REMARK    5  A    between atoms: C_9  and  C_10 
REMARK    6  A    between atoms: N_15  and  C_14 
REMARK    7  A    between atoms: N_20  and  C_19 
REMARK       I    between atoms: C_22  and  N_20 
ROOT
ATOM      1  C   LIG d   1      -7.608  76.234 117.165  0.00  0.00     0.161 C 
ATOM      2  C   LIG d   1      -8.265  75.001 117.023  0.00  0.00     0.016 C 
ATOM      3  C   LIG d   1      -7.610  73.811 116.630  0.00  0.00     0.038 C 
ATOM      4  C   LIG d   1      -6.215  73.741 116.498  0.00  0.00     0.028 C 
ATOM      5  C   LIG d   1      -5.573  75.077 116.141  0.00  0.00    -0.047 C 
ATOM      6  C   LIG d   1      -6.067  76.153 117.134  0.00  0.00     0.091 C 
ENDROOT
BRANCH   1   7
ATOM      7  O   LIG d   1      -8.051  76.887 118.371  0.00  0.00    -0.368 OA
BRANCH   7   8
ATOM      8  C   LIG d   1      -8.885  78.059 118.192  0.00  0.00     0.119 C 
BRANCH   8   9
ATOM      9  C   LIG d   1      -8.100  79.272 118.728  0.00  0.00     0.028 C 
ATOM     10  C   LIG d   1      -7.972  80.395 117.686  0.00  0.00     0.006 C 
ENDBRANCH   8   9
BRANCH   8  11
ATOM     11  C   LIG d   1     -10.149  77.980 119.053  0.00  0.00     0.028 C 
ATOM     12  C   LIG d   1     -11.246  77.109 118.422  0.00  0.00     0.006 C 
ENDBRANCH   8  11
ENDBRANCH   7   8
ENDBRANCH   1   7
BRANCH   6  13
ATOM     13  N   LIG d   1      -5.552  77.508 116.805  0.00  0.00    -0.311 N 
ATOM     14  C   LIG d   1      -4.765  78.211 117.617  0.00  0.00     0.210 C 
ATOM     15  C   LIG d   1      -4.365  79.594 117.093  0.00  0.00     0.109 C 
ATOM     16  O   LIG d   1      -4.335  77.808 118.709  0.00  0.00    -0.276 OA
ATOM     17  H   LIG d   1      -5.827  77.899 115.924  0.00  0.00     0.149 HD
ENDBRANCH   6  13
BRANCH   5  18
ATOM     18  N   LIG d   1      -4.110  74.891 116.171  0.00  0.00     0.381 N 
ATOM     19  H   LIG d   1      -3.853  74.353 116.975  0.00  0.00    -0.090 HD
ATOM     20  H   LIG d   1      -3.669  75.791 116.240  0.00  0.00    -0.090 HD
ATOM     21  H   LIG d   1      -3.808  74.427 115.343  0.00  0.00    -0.090 HD
ENDBRANCH   5  18
BRANCH   3  22
ATOM     22  C   LIG d   1      -8.357  72.684 116.325  0.00  0.00     0.382 C 
ATOM     23  O   LIG d   1      -9.606  72.765 116.236  0.00  0.00    -0.241 OA
ATOM     24  O   LIG d   1      -7.803  71.577 116.182  0.00  0.00    -0.241 OA
ENDBRANCH   3  22
TORSDOF 7
ENDMDL
MODEL 7
REMARK VINA RESULT:      -5.1      2.528      4.047
REMARK  7 active torsions:
REMARK  status: ('A' for Active; 'I' for Inactive)
REMARK    1  A    between atoms: C_2  and  C_3 
REMARK    2  A    between atoms: C_3  and  O_6 
REMARK    3  A    between atoms: C_3  and  C_4 
REMARK    4  A    between atoms: C_7  and  O_6 
REMARK    5  A    between atoms: C_9  and  C_10 
REMARK    6  A    between atoms: N_15  and  C_14 
REMARK    7  A    between atoms: N_20  and  C_19 
REMARK       I    between atoms: C_22  and  N_20 
ROOT
ATOM      1  C   LIG d   1      -7.353  76.999 116.909  0.00  0.00     0.161 C 
ATOM      2  C   LIG d   1      -8.714  76.949 117.251  0.00  0.00     0.016 C 
ATOM      3  C   LIG d   1      -9.343  77.906 118.081  0.00  0.00     0.038 C 
ATOM      4  C   LIG d   1      -8.683  79.069 118.505  0.00  0.00     0.028 C 
ATOM      5  C   LIG d   1      -7.170  78.905 118.601  0.00  0.00    -0.047 C 
ATOM      6  C   LIG d   1      -6.643  78.320 117.270  0.00  0.00     0.091 C 
ENDROOT
BRANCH   1   7
ATOM      7  O   LIG d   1      -7.192  76.711 115.506  0.00  0.00    -0.368 OA
BRANCH   7   8
ATOM      8  C   LIG d   1      -6.725  75.379 115.178  0.00  0.00     0.119 C 
BRANCH   8   9
ATOM      9  C   LIG d   1      -6.302  74.700 116.495  0.00  0.00     0.028 C 
ATOM     10  C   LIG d   1      -6.899  73.291 116.647  0.00  0.00     0.006 C 
ENDBRANCH   8   9
BRANCH   8  11
ATOM     11  C   LIG d   1      -5.457  75.428 114.321  0.00  0.00     0.028 C 
ATOM     12  C   LIG d   1      -4.170  75.357 115.157  0.00  0.00     0.006 C 
ENDBRANCH   8  11
ENDBRANCH   7   8
ENDBRANCH   1   7
BRANCH   6  13
ATOM     13  N   LIG d   1      -5.182  78.050 117.309  0.00  0.00    -0.311 N 
ATOM     14  C   LIG d   1      -4.264  78.916 116.884  0.00  0.00     0.210 C 
ATOM     15  C   LIG d   1      -2.816  78.430 116.995  0.00  0.00     0.109 C 
ATOM     16  O   LIG d   1      -4.510  80.054 116.456  0.00  0.00    -0.276 OA
ATOM     17  H   LIG d   1      -4.892  77.162 117.671  0.00  0.00     0.149 HD
ENDBRANCH   6  13
BRANCH   5  18
ATOM     18  N   LIG d   1      -6.597  80.227 118.918  0.00  0.00     0.381 N 
ATOM     19  H   LIG d   1      -6.363  80.270 119.890  0.00  0.00    -0.090 HD
ATOM     20  H   LIG d   1      -7.286  80.934 118.728  0.00  0.00    -0.090 HD
ATOM     21  H   LIG d   1      -5.784  80.388 118.366  0.00  0.00    -0.090 HD
ENDBRANCH   5  18
BRANCH   3  22
ATOM     22  C   LIG d   1     -10.637  77.683 118.529  0.00  0.00     0.382 C 
ATOM     23  O   LIG d   1     -10.953  77.982 119.706  0.00  0.00    -0.241 OA
ATOM     24  O   LIG d   1     -11.479  77.147 117.784  0.00  0.00    -0.241 OA
ENDBRANCH   3  22
TORSDOF 7
ENDMDL
MODEL 8
REMARK VINA RESULT:      -4.9      2.098      5.167
REMARK  7 active torsions:
REMARK  status: ('A' for Active; 'I' for Inactive)
REMARK    1  A    between atoms: C_2  and  C_3 
REMARK    2  A    between atoms: C_3  and  O_6 
REMARK    3  A    between atoms: C_3  and  C_4 
REMARK    4  A    between atoms: C_7  and  O_6 
REMARK    5  A    between atoms: C_9  and  C_10 
REMARK    6  A    between atoms: N_15  and  C_14 
REMARK    7  A    between atoms: N_20  and  C_19 
REMARK       I    between atoms: C_22  and  N_20 
ROOT
ATOM      1  C   LIG d   1      -7.299  77.495 117.471  0.00  0.00     0.161 C 
ATOM      2  C   LIG d   1      -7.260  78.897 117.392  0.00  0.00     0.016 C 
ATOM      3  C   LIG d   1      -8.324  79.730 117.809  0.00  0.00     0.038 C 
ATOM      4  C   LIG d   1      -9.446  79.220 118.479  0.00  0.00     0.028 C 
ATOM      5  C   LIG d   1      -9.754  77.768 118.127  0.00  0.00    -0.047 C 
ATOM      6  C   LIG d   1      -8.469  76.926 118.301  0.00  0.00     0.091 C 
ENDROOT
BRANCH   1   7
ATOM      7  O   LIG d   1      -6.042  76.999 117.972  0.00  0.00    -0.368 OA
BRANCH   7   8
ATOM      8  C   LIG d   1      -5.018  76.739 116.981  0.00  0.00     0.119 C 
BRANCH   8   9
ATOM      9  C   LIG d   1      -5.259  75.321 116.428  0.00  0.00     0.028 C 
ATOM     10  C   LIG d   1      -5.572  75.323 114.922  0.00  0.00     0.006 C 
ENDBRANCH   8   9
BRANCH   8  11
ATOM     11  C   LIG d   1      -3.625  76.696 117.616  0.00  0.00     0.028 C 
ATOM     12  C   LIG d   1      -3.475  77.676 118.790  0.00  0.00     0.006 C 
ENDBRANCH   8  11
ENDBRANCH   7   8
ENDBRANCH   1   7
BRANCH   6  13
ATOM     13  N   LIG d   1      -8.660  75.509 117.897  0.00  0.00    -0.311 N 
ATOM     14  C   LIG d   1      -8.931  75.133 116.648  0.00  0.00     0.210 C 
ATOM     15  C   LIG d   1      -9.111  73.625 116.451  0.00  0.00     0.109 C 
ATOM     16  O   LIG d   1      -9.007  75.903 115.679  0.00  0.00    -0.276 OA
ATOM     17  H   LIG d   1      -8.585  74.816 118.615  0.00  0.00     0.149 HD
ENDBRANCH   6  13
BRANCH   5  18
ATOM     18  N   LIG d   1     -10.859  77.323 118.996  0.00  0.00     0.381 N 
ATOM     19  H   LIG d   1     -10.985  77.975 119.744  0.00  0.00    -0.090 HD
ATOM     20  H   LIG d   1     -10.622  76.430 119.392  0.00  0.00    -0.090 HD
ATOM     21  H   LIG d   1     -11.700  77.248 118.467  0.00  0.00    -0.090 HD
ENDBRANCH   5  18
BRANCH   3  22
ATOM     22  C   LIG d   1      -8.289  81.085 117.521  0.00  0.00     0.382 C 
ATOM     23  O   LIG d   1      -7.315  81.568 116.894  0.00  0.00    -0.241 OA
ATOM     24  O   LIG d   1      -9.197  81.840 117.918  0.00  0.00    -0.241 OA
ENDBRANCH   3  22
TORSDOF 7
ENDMDL
MODEL 9
REMARK VINA RESULT:      -4.8      5.404      6.957
REMARK  7 active torsions:
REMARK  status: ('A' for Active; 'I' for Inactive)
REMARK    1  A    between atoms: C_2  and  C_3 
REMARK    2  A    between atoms: C_3  and  O_6 
REMARK    3  A    between atoms: C_3  and  C_4 
REMARK    4  A    between atoms: C_7  and  O_6 
REMARK    5  A    between atoms: C_9  and  C_10 
REMARK    6  A    between atoms: N_15  and  C_14 
REMARK    7  A    between atoms: N_20  and  C_19 
REMARK       I    between atoms: C_22  and  N_20 
ROOT
ATOM      1  C   LIG d   1      -1.789  74.527 116.123  0.00  0.00     0.161 C 
ATOM      2  C   LIG d   1      -2.238  75.352 115.079  0.00  0.00     0.016 C 
ATOM      3  C   LIG d   1      -2.631  76.698 115.264  0.00  0.00     0.038 C 
ATOM      4  C   LIG d   1      -2.457  77.358 116.489  0.00  0.00     0.028 C 
ATOM      5  C   LIG d   1      -2.481  76.421 117.692  0.00  0.00    -0.047 C 
ATOM      6  C   LIG d   1      -1.488  75.263 117.445  0.00  0.00     0.091 C 
ENDROOT
BRANCH   1   7
ATOM      7  O   LIG d   1      -0.635  73.778 115.692  0.00  0.00    -0.368 OA
BRANCH   7   8
ATOM      8  C   LIG d   1      -0.112  74.110 114.383  0.00  0.00     0.119 C 
BRANCH   8   9
ATOM      9  C   LIG d   1      -0.185  72.836 113.518  0.00  0.00     0.028 C 
ATOM     10  C   LIG d   1       0.677  71.694 114.083  0.00  0.00     0.006 C 
ENDBRANCH   8   9
BRANCH   8  11
ATOM     11  C   LIG d   1       1.375  74.469 114.451  0.00  0.00     0.028 C 
ATOM     12  C   LIG d   1       1.743  75.241 115.728  0.00  0.00     0.006 C 
ENDBRANCH   8  11
ENDBRANCH   7   8
ENDBRANCH   1   7
BRANCH   6  13
ATOM     13  N   LIG d   1      -1.510  74.254 118.536  0.00  0.00    -0.311 N 
ATOM     14  C   LIG d   1      -0.732  74.323 119.615  0.00  0.00     0.210 C 
ATOM     15  C   LIG d   1      -0.900  73.170 120.609  0.00  0.00     0.109 C 
ATOM     16  O   LIG d   1       0.059  75.247 119.858  0.00  0.00    -0.276 OA
ATOM     17  H   LIG d   1      -2.145  73.487 118.435  0.00  0.00     0.149 HD
ENDBRANCH   6  13
BRANCH   5  18
ATOM     18  N   LIG d   1      -2.152  77.221 118.887  0.00  0.00     0.381 N 
ATOM     19  H   LIG d   1      -1.322  76.862 119.317  0.00  0.00    -0.090 HD
ATOM     20  H   LIG d   1      -2.906  77.146 119.546  0.00  0.00    -0.090 HD
ATOM     21  H   LIG d   1      -2.017  78.174 118.633  0.00  0.00    -0.090 HD
ENDBRANCH   5  18
BRANCH   3  22
ATOM     22  C   LIG d   1      -3.242  77.384 114.226  0.00  0.00     0.382 C 
ATOM     23  O   LIG d   1      -2.879  78.553 113.948  0.00  0.00    -0.241 OA
ATOM     24  O   LIG d   1      -4.182  76.867 113.594  0.00  0.00    -0.241 OA
ENDBRANCH   3  22
TORSDOF 7
ENDMDL
