MODEL 1
REMARK VINA RESULT:      -5.6      0.000      0.000
REMARK  7 active torsions:
REMARK  status: ('A' for Active; 'I' for Inactive)
REMARK    1  A    between atoms: C_2  and  C_3 
REMARK    2  A    between atoms: C_3  and  O_6 
REMARK    3  A    between atoms: C_3  and  C_4 
REMARK    4  A    between atoms: C_7  and  O_6 
REMARK    5  A    between atoms: C_9  and  C_10 
REMARK    6  A    between atoms: N_15  and  C_14 
REMARK    7  A    between atoms: N_20  and  C_19 
REMARK       I    between atoms: C_22  and  N_20 
ROOT
ATOM      1  C   LIG d   1      -6.700  75.401 116.820  0.00  0.00     0.161 C 
ATOM      2  C   LIG d   1      -7.585  74.319 116.679  0.00  0.00     0.016 C 
ATOM      3  C   LIG d   1      -7.159  72.988 116.468  0.00  0.00     0.038 C 
ATOM      4  C   LIG d   1      -5.806  72.623 116.534  0.00  0.00     0.028 C 
ATOM      5  C   LIG d   1      -4.854  73.758 116.172  0.00  0.00    -0.047 C 
ATOM      6  C   LIG d   1      -5.220  75.006 117.007  0.00  0.00     0.091 C 
ENDROOT
BRANCH   1   7
ATOM      7  O   LIG d   1      -7.133  76.248 117.903  0.00  0.00    -0.368 OA
BRANCH   7   8
ATOM      8  C   LIG d   1      -7.608  77.565 117.531  0.00  0.00     0.119 C 
BRANCH   8   9
ATOM      9  C   LIG d   1      -6.772  78.597 118.313  0.00  0.00     0.028 C 
ATOM     10  C   LIG d   1      -5.854  79.424 117.397  0.00  0.00     0.006 C 
ENDBRANCH   8   9
BRANCH   8  11
ATOM     11  C   LIG d   1      -9.054  77.785 117.987  0.00  0.00     0.028 C 
ATOM     12  C   LIG d   1      -9.397  79.270 118.185  0.00  0.00     0.006 C 
ENDBRANCH   8  11
ENDBRANCH   7   8
ENDBRANCH   1   7
BRANCH   6  13
ATOM     13  N   LIG d   1      -4.391  76.188 116.653  0.00  0.00    -0.311 N 
ATOM     14  C   LIG d   1      -3.274  76.519 117.298  0.00  0.00     0.210 C 
ATOM     15  C   LIG d   1      -2.582  77.786 116.785  0.00  0.00     0.109 C 
ATOM     16  O   LIG d   1      -2.772  75.865 118.225  0.00  0.00    -0.276 OA
ATOM     17  H   LIG d   1      -4.708  76.756 115.892  0.00  0.00     0.149 HD
ENDBRANCH   6  13
BRANCH   5  18
ATOM     18  N   LIG d   1      -3.479  73.281 116.416  0.00  0.00     0.381 N 
ATOM     19  H   LIG d   1      -2.855  74.061 116.468  0.00  0.00    -0.090 HD
ATOM     20  H   LIG d   1      -3.195  72.700 115.648  0.00  0.00    -0.090 HD
ATOM     21  H   LIG d   1      -3.444  72.762 117.266  0.00  0.00    -0.090 HD
ENDBRANCH   5  18
BRANCH   3  22
ATOM     22  C   LIG d   1      -8.089  72.011 116.146  0.00  0.00     0.382 C 
ATOM     23  O   LIG d   1      -9.304  72.195 116.400  0.00  0.00    -0.241 OA
ATOM     24  O   LIG d   1      -7.724  70.931 115.646  0.00  0.00    -0.241 OA
ENDBRANCH   3  22
TORSDOF 7
ENDMDL
MODEL 2
REMARK VINA RESULT:      -5.5      2.056      5.224
REMARK  7 active torsions:
REMARK  status: ('A' for Active; 'I' for Inactive)
REMARK    1  A    between atoms: C_2  and  C_3 
REMARK    2  A    between atoms: C_3  and  O_6 
REMARK    3  A    between atoms: C_3  and  C_4 
REMARK    4  A    between atoms: C_7  and  O_6 
REMARK    5  A    between atoms: C_9  and  C_10 
REMARK    6  A    between atoms: N_15  and  C_14 
REMARK    7  A    between atoms: N_20  and  C_19 
REMARK       I    between atoms: C_22  and  N_20 
ROOT
ATOM      1  C   LIG d   1      -6.952  76.209 117.362  0.00  0.00     0.161 C 
ATOM      2  C   LIG d   1      -8.157  76.760 117.829  0.00  0.00     0.016 C 
ATOM      3  C   LIG d   1      -8.344  78.143 118.058  0.00  0.00     0.038 C 
ATOM      4  C   LIG d   1      -7.380  79.092 117.689  0.00  0.00     0.028 C 
ATOM      5  C   LIG d   1      -5.958  78.541 117.684  0.00  0.00    -0.047 C 
ATOM      6  C   LIG d   1      -5.926  77.241 116.849  0.00  0.00     0.091 C 
ENDROOT
BRANCH   1   7
ATOM      7  O   LIG d   1      -7.226  75.226 116.344  0.00  0.00    -0.368 OA
BRANCH   7   8
ATOM      8  C   LIG d   1      -7.061  73.841 116.736  0.00  0.00     0.119 C 
BRANCH   8   9
ATOM      9  C   LIG d   1      -5.972  73.231 115.833  0.00  0.00     0.028 C 
ATOM     10  C   LIG d   1      -5.739  74.055 114.555  0.00  0.00     0.006 C 
ENDBRANCH   8   9
BRANCH   8  11
ATOM     11  C   LIG d   1      -8.327  73.027 116.451  0.00  0.00     0.028 C 
ATOM     12  C   LIG d   1      -8.026  71.565 116.085  0.00  0.00     0.006 C 
ENDBRANCH   8  11
ENDBRANCH   7   8
ENDBRANCH   1   7
BRANCH   6  13
ATOM     13  N   LIG d   1      -4.589  76.591 116.862  0.00  0.00    -0.311 N 
ATOM     14  C   LIG d   1      -3.684  76.758 115.900  0.00  0.00     0.210 C 
ATOM     15  C   LIG d   1      -2.378  75.981 116.099  0.00  0.00     0.109 C 
ATOM     16  O   LIG d   1      -3.824  77.501 114.917  0.00  0.00    -0.276 OA
ATOM     17  H   LIG d   1      -4.380  75.996 117.639  0.00  0.00     0.149 HD
ENDBRANCH   6  13
BRANCH   5  18
ATOM     18  N   LIG d   1      -5.074  79.594 117.150  0.00  0.00     0.381 N 
ATOM     19  H   LIG d   1      -4.136  79.439 117.462  0.00  0.00    -0.090 HD
ATOM     20  H   LIG d   1      -5.380  80.485 117.501  0.00  0.00    -0.090 HD
ATOM     21  H   LIG d   1      -5.105  79.593 116.154  0.00  0.00    -0.090 HD
ENDBRANCH   5  18
BRANCH   3  22
ATOM     22  C   LIG d   1      -9.492  78.584 118.699  0.00  0.00     0.382 C 
ATOM     23  O   LIG d   1      -9.887  78.010 119.742  0.00  0.00    -0.241 OA
ATOM     24  O   LIG d   1     -10.161  79.521 118.223  0.00  0.00    -0.241 OA
ENDBRANCH   3  22
TORSDOF 7
ENDMDL
MODEL 3
REMARK VINA RESULT:      -5.5      2.417      5.052
REMARK  7 active torsions:
REMARK  status: ('A' for Active; 'I' for Inactive)
REMARK    1  A    between atoms: C_2  and  C_3 
REMARK    2  A    between atoms: C_3  and  O_6 
REMARK    3  A    between atoms: C_3  and  C_4 
REMARK    4  A    between atoms: C_7  and  O_6 
REMARK    5  A    between atoms: C_9  and  C_10 
REMARK    6  A    between atoms: N_15  and  C_14 
REMARK    7  A    between atoms: N_20  and  C_19 
REMARK       I    between atoms: C_22  and  N_20 
ROOT
ATOM      1  C   LIG d   1      -4.745  74.686 116.973  0.00  0.00     0.161 C 
ATOM      2  C   LIG d   1      -3.729  73.915 116.384  0.00  0.00     0.016 C 
ATOM      3  C   LIG d   1      -2.366  74.018 116.745  0.00  0.00     0.038 C 
ATOM      4  C   LIG d   1      -1.944  74.795 117.834  0.00  0.00     0.028 C 
ATOM      5  C   LIG d   1      -2.866  75.973 118.131  0.00  0.00    -0.047 C 
ATOM      6  C   LIG d   1      -4.320  75.458 118.239  0.00  0.00     0.091 C 
ENDROOT
BRANCH   1   7
ATOM      7  O   LIG d   1      -5.888  73.853 117.254  0.00  0.00    -0.368 OA
BRANCH   7   8
ATOM      8  C   LIG d   1      -6.795  73.622 116.148  0.00  0.00     0.119 C 
BRANCH   8   9
ATOM      9  C   LIG d   1      -8.189  74.116 116.582  0.00  0.00     0.028 C 
ATOM     10  C   LIG d   1      -8.279  75.651 116.628  0.00  0.00     0.006 C 
ENDBRANCH   8   9
BRANCH   8  11
ATOM     11  C   LIG d   1      -6.964  72.125 115.870  0.00  0.00     0.028 C 
ATOM     12  C   LIG d   1      -8.400  71.633 116.111  0.00  0.00     0.006 C 
ENDBRANCH   8  11
ENDBRANCH   7   8
ENDBRANCH   1   7
BRANCH   6  13
ATOM     13  N   LIG d   1      -5.297  76.559 118.444  0.00  0.00    -0.311 N 
ATOM     14  C   LIG d   1      -6.188  76.573 119.434  0.00  0.00     0.210 C 
ATOM     15  C   LIG d   1      -7.116  77.792 119.451  0.00  0.00     0.109 C 
ATOM     16  O   LIG d   1      -6.277  75.707 120.317  0.00  0.00    -0.276 OA
ATOM     17  H   LIG d   1      -5.274  77.317 117.791  0.00  0.00     0.149 HD
ENDBRANCH   6  13
BRANCH   5  18
ATOM     18  N   LIG d   1      -2.386  76.615 119.369  0.00  0.00     0.381 N 
ATOM     19  H   LIG d   1      -3.156  77.026 119.858  0.00  0.00    -0.090 HD
ATOM     20  H   LIG d   1      -1.740  77.345 119.128  0.00  0.00    -0.090 HD
ATOM     21  H   LIG d   1      -1.937  75.941 119.950  0.00  0.00    -0.090 HD
ENDBRANCH   5  18
BRANCH   3  22
ATOM     22  C   LIG d   1      -1.403  73.368 115.988  0.00  0.00     0.382 C 
ATOM     23  O   LIG d   1      -0.586  72.594 116.543  0.00  0.00    -0.241 OA
ATOM     24  O   LIG d   1      -1.312  73.581 114.764  0.00  0.00    -0.241 OA
ENDBRANCH   3  22
TORSDOF 7
ENDMDL
MODEL 4
REMARK VINA RESULT:      -5.5      1.385      2.039
REMARK  7 active torsions:
REMARK  status: ('A' for Active; 'I' for Inactive)
REMARK    1  A    between atoms: C_2  and  C_3 
REMARK    2  A    between atoms: C_3  and  O_6 
REMARK    3  A    between atoms: C_3  and  C_4 
REMARK    4  A    between atoms: C_7  and  O_6 
REMARK    5  A    between atoms: C_9  and  C_10 
REMARK    6  A    between atoms: N_15  and  C_14 
REMARK    7  A    between atoms: N_20  and  C_19 
REMARK       I    between atoms: C_22  and  N_20 
ROOT
ATOM      1  C   LIG d   1      -5.773  75.431 115.073  0.00  0.00     0.161 C 
ATOM      2  C   LIG d   1      -6.733  74.424 115.269  0.00  0.00     0.016 C 
ATOM      3  C   LIG d   1      -6.446  73.186 115.888  0.00  0.00     0.038 C 
ATOM      4  C   LIG d   1      -5.207  72.929 116.493  0.00  0.00     0.028 C 
ATOM      5  C   LIG d   1      -4.056  73.718 115.878  0.00  0.00    -0.047 C 
ATOM      6  C   LIG d   1      -4.444  75.214 115.827  0.00  0.00     0.091 C 
ENDROOT
BRANCH   1   7
ATOM      7  O   LIG d   1      -6.336  76.714 115.411  0.00  0.00    -0.368 OA
BRANCH   7   8
ATOM      8  C   LIG d   1      -6.618  76.937 116.815  0.00  0.00     0.119 C 
BRANCH   8   9
ATOM      9  C   LIG d   1      -8.117  76.657 117.036  0.00  0.00     0.028 C 
ATOM     10  C   LIG d   1      -8.771  77.675 117.985  0.00  0.00     0.006 C 
ENDBRANCH   8   9
BRANCH   8  11
ATOM     11  C   LIG d   1      -6.420  78.407 117.196  0.00  0.00     0.028 C 
ATOM     12  C   LIG d   1      -4.956  78.860 117.082  0.00  0.00     0.006 C 
ENDBRANCH   8  11
ENDBRANCH   7   8
ENDBRANCH   1   7
BRANCH   6  13
ATOM     13  N   LIG d   1      -3.408  76.046 115.161  0.00  0.00    -0.311 N 
ATOM     14  C   LIG d   1      -2.414  76.641 115.817  0.00  0.00     0.210 C 
ATOM     15  C   LIG d   1      -1.467  77.469 114.942  0.00  0.00     0.109 C 
ATOM     16  O   LIG d   1      -2.207  76.537 117.035  0.00  0.00    -0.276 OA
ATOM     17  H   LIG d   1      -3.482  76.158 114.169  0.00  0.00     0.149 HD
ENDBRANCH   6  13
BRANCH   5  18
ATOM     18  N   LIG d   1      -2.853  73.460 116.691  0.00  0.00     0.381 N 
ATOM     19  H   LIG d   1      -2.925  73.942 117.565  0.00  0.00    -0.090 HD
ATOM     20  H   LIG d   1      -2.049  73.812 116.202  0.00  0.00    -0.090 HD
ATOM     21  H   LIG d   1      -2.752  72.482 116.850  0.00  0.00    -0.090 HD
ENDBRANCH   5  18
BRANCH   3  22
ATOM     22  C   LIG d   1      -7.393  72.173 115.870  0.00  0.00     0.382 C 
ATOM     23  O   LIG d   1      -8.515  72.354 116.401  0.00  0.00    -0.241 OA
ATOM     24  O   LIG d   1      -7.123  71.065 115.368  0.00  0.00    -0.241 OA
ENDBRANCH   3  22
TORSDOF 7
ENDMDL
MODEL 5
REMARK VINA RESULT:      -5.5      2.221      4.597
REMARK  7 active torsions:
REMARK  status: ('A' for Active; 'I' for Inactive)
REMARK    1  A    between atoms: C_2  and  C_3 
REMARK    2  A    between atoms: C_3  and  O_6 
REMARK    3  A    between atoms: C_3  and  C_4 
REMARK    4  A    between atoms: C_7  and  O_6 
REMARK    5  A    between atoms: C_9  and  C_10 
REMARK    6  A    between atoms: N_15  and  C_14 
REMARK    7  A    between atoms: N_20  and  C_19 
REMARK       I    between atoms: C_22  and  N_20 
ROOT
ATOM      1  C   LIG d   1      -4.596  74.176 116.392  0.00  0.00     0.161 C 
ATOM      2  C   LIG d   1      -5.446  73.112 116.049  0.00  0.00     0.016 C 
ATOM      3  C   LIG d   1      -6.853  73.165 116.185  0.00  0.00     0.038 C 
ATOM      4  C   LIG d   1      -7.520  74.349 116.533  0.00  0.00     0.028 C 
ATOM      5  C   LIG d   1      -6.672  75.297 117.374  0.00  0.00    -0.047 C 
ATOM      6  C   LIG d   1      -5.313  75.514 116.668  0.00  0.00     0.091 C 
ENDROOT
BRANCH   1   7
ATOM      7  O   LIG d   1      -3.592  74.347 115.372  0.00  0.00    -0.368 OA
BRANCH   7   8
ATOM      8  C   LIG d   1      -2.278  73.817 115.676  0.00  0.00     0.119 C 
BRANCH   8   9
ATOM      9  C   LIG d   1      -2.182  73.667 117.206  0.00  0.00     0.028 C 
ATOM     10  C   LIG d   1      -0.924  72.897 117.642  0.00  0.00     0.006 C 
ENDBRANCH   8   9
BRANCH   8  11
ATOM     11  C   LIG d   1      -1.176  74.810 115.296  0.00  0.00     0.028 C 
ATOM     12  C   LIG d   1      -1.725  76.193 114.913  0.00  0.00     0.006 C 
ENDBRANCH   8  11
ENDBRANCH   7   8
ENDBRANCH   1   7
BRANCH   6  13
ATOM     13  N   LIG d   1      -4.390  76.363 117.466  0.00  0.00    -0.311 N 
ATOM     14  C   LIG d   1      -4.248  77.673 117.272  0.00  0.00     0.210 C 
ATOM     15  C   LIG d   1      -3.228  78.355 118.190  0.00  0.00     0.109 C 
ATOM     16  O   LIG d   1      -4.893  78.341 116.450  0.00  0.00    -0.276 OA
ATOM     17  H   LIG d   1      -3.850  75.908 118.176  0.00  0.00     0.149 HD
ENDBRANCH   6  13
BRANCH   5  18
ATOM     18  N   LIG d   1      -7.438  76.545 117.548  0.00  0.00     0.381 N 
ATOM     19  H   LIG d   1      -8.131  76.620 116.829  0.00  0.00    -0.090 HD
ATOM     20  H   LIG d   1      -6.811  77.326 117.465  0.00  0.00    -0.090 HD
ATOM     21  H   LIG d   1      -7.876  76.555 118.443  0.00  0.00    -0.090 HD
ENDBRANCH   5  18
BRANCH   3  22
ATOM     22  C   LIG d   1      -7.604  72.012 116.010  0.00  0.00     0.382 C 
ATOM     23  O   LIG d   1      -7.098  71.015 115.441  0.00  0.00    -0.241 OA
ATOM     24  O   LIG d   1      -8.795  71.973 116.373  0.00  0.00    -0.241 OA
ENDBRANCH   3  22
TORSDOF 7
ENDMDL
MODEL 6
REMARK VINA RESULT:      -5.3     14.694     17.169
REMARK  7 active torsions:
REMARK  status: ('A' for Active; 'I' for Inactive)
REMARK    1  A    between atoms: C_2  and  C_3 
REMARK    2  A    between atoms: C_3  and  O_6 
REMARK    3  A    between atoms: C_3  and  C_4 
REMARK    4  A    between atoms: C_7  and  O_6 
REMARK    5  A    between atoms: C_9  and  C_10 
REMARK    6  A    between atoms: N_15  and  C_14 
REMARK    7  A    between atoms: N_20  and  C_19 
REMARK       I    between atoms: C_22  and  N_20 
ROOT
ATOM      1  C   LIG d   1      -3.574  91.376 117.459  0.00  0.00     0.161 C 
ATOM      2  C   LIG d   1      -4.167  90.631 116.426  0.00  0.00     0.016 C 
ATOM      3  C   LIG d   1      -5.403  90.972 115.831  0.00  0.00     0.038 C 
ATOM      4  C   LIG d   1      -6.061  92.175 116.127  0.00  0.00     0.028 C 
ATOM      5  C   LIG d   1      -5.755  92.706 117.523  0.00  0.00    -0.047 C 
ATOM      6  C   LIG d   1      -4.222  92.752 117.717  0.00  0.00     0.091 C 
ENDROOT
BRANCH   1   7
ATOM      7  O   LIG d   1      -2.163  91.527 117.204  0.00  0.00    -0.368 OA
BRANCH   7   8
ATOM      8  C   LIG d   1      -1.276  90.757 118.052  0.00  0.00     0.119 C 
BRANCH   8   9
ATOM      9  C   LIG d   1      -0.073  91.654 118.401  0.00  0.00     0.028 C 
ATOM     10  C   LIG d   1       0.158  92.758 117.355  0.00  0.00     0.006 C 
ENDBRANCH   8   9
BRANCH   8  11
ATOM     11  C   LIG d   1      -0.686  89.561 117.299  0.00  0.00     0.028 C 
ATOM     12  C   LIG d   1      -1.471  88.261 117.536  0.00  0.00     0.006 C 
ENDBRANCH   8  11
ENDBRANCH   7   8
ENDBRANCH   1   7
BRANCH   6  13
ATOM     13  N   LIG d   1      -3.837  93.181 119.087  0.00  0.00    -0.311 N 
ATOM     14  C   LIG d   1      -2.980  94.171 119.332  0.00  0.00     0.210 C 
ATOM     15  C   LIG d   1      -2.707  94.437 120.816  0.00  0.00     0.109 C 
ATOM     16  O   LIG d   1      -2.446  94.875 118.462  0.00  0.00    -0.276 OA
ATOM     17  H   LIG d   1      -4.248  92.684 119.853  0.00  0.00     0.149 HD
ENDBRANCH   6  13
BRANCH   5  18
ATOM     18  N   LIG d   1      -6.395  94.029 117.647  0.00  0.00     0.381 N 
ATOM     19  H   LIG d   1      -6.701  94.171 118.589  0.00  0.00    -0.090 HD
ATOM     20  H   LIG d   1      -7.199  94.059 117.046  0.00  0.00    -0.090 HD
ATOM     21  H   LIG d   1      -5.751  94.744 117.389  0.00  0.00    -0.090 HD
ENDBRANCH   5  18
BRANCH   3  22
ATOM     22  C   LIG d   1      -6.013  90.084 114.958  0.00  0.00     0.382 C 
ATOM     23  O   LIG d   1      -7.188  90.294 114.570  0.00  0.00    -0.241 OA
ATOM     24  O   LIG d   1      -5.420  89.054 114.588  0.00  0.00    -0.241 OA
ENDBRANCH   3  22
TORSDOF 7
ENDMDL
MODEL 7
REMARK VINA RESULT:      -4.8     15.666     17.920
REMARK  7 active torsions:
REMARK  status: ('A' for Active; 'I' for Inactive)
REMARK    1  A    between atoms: C_2  and  C_3 
REMARK    2  A    between atoms: C_3  and  O_6 
REMARK    3  A    between atoms: C_3  and  C_4 
REMARK    4  A    between atoms: C_7  and  O_6 
REMARK    5  A    between atoms: C_9  and  C_10 
REMARK    6  A    between atoms: N_15  and  C_14 
REMARK    7  A    between atoms: N_20  and  C_19 
REMARK       I    between atoms: C_22  and  N_20 
ROOT
ATOM      1  C   LIG d   1      -3.698  91.615 118.499  0.00  0.00     0.161 C 
ATOM      2  C   LIG d   1      -3.985  90.906 117.321  0.00  0.00     0.016 C 
ATOM      3  C   LIG d   1      -4.994  91.290 116.408  0.00  0.00     0.038 C 
ATOM      4  C   LIG d   1      -5.687  92.503 116.536  0.00  0.00     0.028 C 
ATOM      5  C   LIG d   1      -5.783  92.997 117.975  0.00  0.00    -0.047 C 
ATOM      6  C   LIG d   1      -4.369  93.001 118.600  0.00  0.00     0.091 C 
ENDROOT
BRANCH   1   7
ATOM      7  O   LIG d   1      -2.271  91.735 118.662  0.00  0.00    -0.368 OA
BRANCH   7   8
ATOM      8  C   LIG d   1      -1.552  92.333 117.556  0.00  0.00     0.119 C 
BRANCH   8   9
ATOM      9  C   LIG d   1      -0.392  91.386 117.193  0.00  0.00     0.028 C 
ATOM     10  C   LIG d   1       0.893  92.147 116.823  0.00  0.00     0.006 C 
ENDBRANCH   8   9
BRANCH   8  11
ATOM     11  C   LIG d   1      -0.887  93.649 117.969  0.00  0.00     0.028 C 
ATOM     12  C   LIG d   1      -1.471  94.868 117.235  0.00  0.00     0.006 C 
ENDBRANCH   8  11
ENDBRANCH   7   8
ENDBRANCH   1   7
BRANCH   6  13
ATOM     13  N   LIG d   1      -4.384  93.391 120.034  0.00  0.00    -0.311 N 
ATOM     14  C   LIG d   1      -4.160  94.634 120.458  0.00  0.00     0.210 C 
ATOM     15  C   LIG d   1      -4.201  94.815 121.978  0.00  0.00     0.109 C 
ATOM     16  O   LIG d   1      -3.962  95.609 119.717  0.00  0.00    -0.276 OA
ATOM     17  H   LIG d   1      -4.567  92.668 120.701  0.00  0.00     0.149 HD
ENDBRANCH   6  13
BRANCH   5  18
ATOM     18  N   LIG d   1      -6.407  94.333 117.947  0.00  0.00     0.381 N 
ATOM     19  H   LIG d   1      -6.331  94.723 117.029  0.00  0.00    -0.090 HD
ATOM     20  H   LIG d   1      -5.917  94.934 118.586  0.00  0.00    -0.090 HD
ATOM     21  H   LIG d   1      -7.365  94.267 118.211  0.00  0.00    -0.090 HD
ENDBRANCH   5  18
BRANCH   3  22
ATOM     22  C   LIG d   1      -5.345  90.437 115.373  0.00  0.00     0.382 C 
ATOM     23  O   LIG d   1      -6.235  90.775 114.555  0.00  0.00    -0.241 OA
ATOM     24  O   LIG d   1      -4.815  89.314 115.272  0.00  0.00    -0.241 OA
ENDBRANCH   3  22
TORSDOF 7
ENDMDL
MODEL 8
REMARK VINA RESULT:      -4.8     16.251     18.833
REMARK  7 active torsions:
REMARK  status: ('A' for Active; 'I' for Inactive)
REMARK    1  A    between atoms: C_2  and  C_3 
REMARK    2  A    between atoms: C_3  and  O_6 
REMARK    3  A    between atoms: C_3  and  C_4 
REMARK    4  A    between atoms: C_7  and  O_6 
REMARK    5  A    between atoms: C_9  and  C_10 
REMARK    6  A    between atoms: N_15  and  C_14 
REMARK    7  A    between atoms: N_20  and  C_19 
REMARK       I    between atoms: C_22  and  N_20 
ROOT
ATOM      1  C   LIG d   1       1.674  58.198 120.563  0.00  0.00     0.161 C 
ATOM      2  C   LIG d   1       3.032  57.864 120.428  0.00  0.00     0.016 C 
ATOM      3  C   LIG d   1       3.732  57.931 119.201  0.00  0.00     0.038 C 
ATOM      4  C   LIG d   1       3.155  58.485 118.048  0.00  0.00     0.028 C 
ATOM      5  C   LIG d   1       1.635  58.365 118.013  0.00  0.00    -0.047 C 
ATOM      6  C   LIG d   1       1.059  58.910 119.340  0.00  0.00     0.091 C 
ENDROOT
BRANCH   1   7
ATOM      7  O   LIG d   1       1.481  58.988 121.752  0.00  0.00    -0.368 OA
BRANCH   7   8
ATOM      8  C   LIG d   1       1.597  60.423 121.590  0.00  0.00     0.119 C 
BRANCH   8   9
ATOM      9  C   LIG d   1       2.752  60.900 122.492  0.00  0.00     0.028 C 
ATOM     10  C   LIG d   1       4.057  61.121 121.708  0.00  0.00     0.006 C 
ENDBRANCH   8   9
BRANCH   8  11
ATOM     11  C   LIG d   1       0.351  61.145 122.111  0.00  0.00     0.028 C 
ATOM     12  C   LIG d   1       0.688  62.415 122.909  0.00  0.00     0.006 C 
ENDBRANCH   8  11
ENDBRANCH   7   8
ENDBRANCH   1   7
BRANCH   6  13
ATOM     13  N   LIG d   1      -0.417  58.752 119.424  0.00  0.00    -0.311 N 
ATOM     14  C   LIG d   1      -1.278  59.681 119.012  0.00  0.00     0.210 C 
ATOM     15  C   LIG d   1      -2.755  59.325 119.207  0.00  0.00     0.109 C 
ATOM     16  O   LIG d   1      -0.959  60.752 118.474  0.00  0.00    -0.276 OA
ATOM     17  H   LIG d   1      -0.763  57.899 119.818  0.00  0.00     0.149 HD
ENDBRANCH   6  13
BRANCH   5  18
ATOM     18  N   LIG d   1       1.157  59.103 116.829  0.00  0.00     0.381 N 
ATOM     19  H   LIG d   1       1.379  60.074 116.922  0.00  0.00    -0.090 HD
ATOM     20  H   LIG d   1       0.158  59.012 116.771  0.00  0.00    -0.090 HD
ATOM     21  H   LIG d   1       1.580  58.736 116.005  0.00  0.00    -0.090 HD
ENDBRANCH   5  18
BRANCH   3  22
ATOM     22  C   LIG d   1       5.011  57.404 119.109  0.00  0.00     0.382 C 
ATOM     23  O   LIG d   1       5.341  56.431 119.830  0.00  0.00    -0.241 OA
ATOM     24  O   LIG d   1       5.853  57.917 118.348  0.00  0.00    -0.241 OA
ENDBRANCH   3  22
TORSDOF 7
ENDMDL
MODEL 9
REMARK VINA RESULT:      -4.7     15.629     18.094
REMARK  7 active torsions:
REMARK  status: ('A' for Active; 'I' for Inactive)
REMARK    1  A    between atoms: C_2  and  C_3 
REMARK    2  A    between atoms: C_3  and  O_6 
REMARK    3  A    between atoms: C_3  and  C_4 
REMARK    4  A    between atoms: C_7  and  O_6 
REMARK    5  A    between atoms: C_9  and  C_10 
REMARK    6  A    between atoms: N_15  and  C_14 
REMARK    7  A    between atoms: N_20  and  C_19 
REMARK       I    between atoms: C_22  and  N_20 
ROOT
ATOM      1  C   LIG d   1      -3.751  91.971 117.087  0.00  0.00     0.161 C 
ATOM      2  C   LIG d   1      -2.969  93.015 117.609  0.00  0.00     0.016 C 
ATOM      3  C   LIG d   1      -3.449  93.948 118.557  0.00  0.00     0.038 C 
ATOM      4  C   LIG d   1      -4.705  93.807 119.164  0.00  0.00     0.028 C 
ATOM      5  C   LIG d   1      -5.717  93.063 118.299  0.00  0.00    -0.047 C 
ATOM      6  C   LIG d   1      -5.087  91.735 117.821  0.00  0.00     0.091 C 
ENDROOT
BRANCH   1   7
ATOM      7  O   LIG d   1      -2.978  90.755 117.049  0.00  0.00    -0.368 OA
BRANCH   7   8
ATOM      8  C   LIG d   1      -1.808  90.716 117.902  0.00  0.00     0.119 C 
BRANCH   8   9
ATOM      9  C   LIG d   1      -0.707  89.951 117.142  0.00  0.00     0.028 C 
ATOM     10  C   LIG d   1       0.261  90.892 116.405  0.00  0.00     0.006 C 
ENDBRANCH   8   9
BRANCH   8  11
ATOM     11  C   LIG d   1      -2.069  89.898 119.170  0.00  0.00     0.028 C 
ATOM     12  C   LIG d   1      -2.068  90.757 120.444  0.00  0.00     0.006 C 
ENDBRANCH   8  11
ENDBRANCH   7   8
ENDBRANCH   1   7
BRANCH   6  13
ATOM     13  N   LIG d   1      -5.980  90.984 116.899  0.00  0.00    -0.311 N 
ATOM     14  C   LIG d   1      -6.361  91.446 115.709  0.00  0.00     0.210 C 
ATOM     15  C   LIG d   1      -7.299  90.522 114.927  0.00  0.00     0.109 C 
ATOM     16  O   LIG d   1      -5.985  92.519 115.214  0.00  0.00    -0.276 OA
ATOM     17  H   LIG d   1      -6.306  90.090 117.209  0.00  0.00     0.149 HD
ENDBRANCH   6  13
BRANCH   5  18
ATOM     18  N   LIG d   1      -6.936  92.868 119.107  0.00  0.00     0.381 N 
ATOM     19  H   LIG d   1      -7.660  93.475 118.779  0.00  0.00    -0.090 HD
ATOM     20  H   LIG d   1      -6.734  93.104 120.062  0.00  0.00    -0.090 HD
ATOM     21  H   LIG d   1      -7.235  91.919 119.048  0.00  0.00    -0.090 HD
ENDBRANCH   5  18
BRANCH   3  22
ATOM     22  C   LIG d   1      -2.683  95.059 118.876  0.00  0.00     0.382 C 
ATOM     23  O   LIG d   1      -2.890  95.675 119.949  0.00  0.00    -0.241 OA
ATOM     24  O   LIG d   1      -1.818  95.479 118.084  0.00  0.00    -0.241 OA
ENDBRANCH   3  22
TORSDOF 7
ENDMDL
