MODEL 1
REMARK VINA RESULT:      -6.7      0.000      0.000
REMARK  7 active torsions:
REMARK  status: ('A' for Active; 'I' for Inactive)
REMARK    1  A    between atoms: C_2  and  C_3 
REMARK    2  A    between atoms: C_3  and  O_6 
REMARK    3  A    between atoms: C_3  and  C_4 
REMARK    4  A    between atoms: C_7  and  O_6 
REMARK    5  A    between atoms: C_9  and  C_10 
REMARK    6  A    between atoms: N_15  and  C_14 
REMARK    7  A    between atoms: N_20  and  C_19 
REMARK       I    between atoms: C_22  and  N_20 
ROOT
ATOM      1  C   LIG d   1       0.910  83.606 109.581  0.00  0.00     0.161 C 
ATOM      2  C   LIG d   1       0.551  84.845 110.137  0.00  0.00     0.016 C 
ATOM      3  C   LIG d   1      -0.144  84.977 111.361  0.00  0.00     0.038 C 
ATOM      4  C   LIG d   1      -0.396  83.875 112.192  0.00  0.00     0.028 C 
ATOM      5  C   LIG d   1      -0.499  82.556 111.435  0.00  0.00    -0.047 C 
ATOM      6  C   LIG d   1       0.742  82.399 110.527  0.00  0.00     0.091 C 
ENDROOT
BRANCH   1   7
ATOM      7  O   LIG d   1       2.261  83.668 109.082  0.00  0.00    -0.368 OA
BRANCH   7   8
ATOM      8  C   LIG d   1       3.310  83.438 110.054  0.00  0.00     0.119 C 
BRANCH   8   9
ATOM      9  C   LIG d   1       3.909  84.809 110.422  0.00  0.00     0.028 C 
ATOM     10  C   LIG d   1       3.840  85.094 111.932  0.00  0.00     0.006 C 
ENDBRANCH   8   9
BRANCH   8  11
ATOM     11  C   LIG d   1       4.468  82.640 109.447  0.00  0.00     0.028 C 
ATOM     12  C   LIG d   1       4.107  82.000 108.097  0.00  0.00     0.006 C 
ENDBRANCH   8  11
ENDBRANCH   7   8
ENDBRANCH   1   7
BRANCH   6  13
ATOM     13  N   LIG d   1       0.681  81.175 109.688  0.00  0.00    -0.311 N 
ATOM     14  C   LIG d   1       1.495  80.133 109.850  0.00  0.00     0.210 C 
ATOM     15  C   LIG d   1       1.274  78.981 108.865  0.00  0.00     0.109 C 
ATOM     16  O   LIG d   1       2.357  80.040 110.737  0.00  0.00    -0.276 OA
ATOM     17  H   LIG d   1      -0.011  81.152 108.964  0.00  0.00     0.149 HD
ENDBRANCH   6  13
BRANCH   5  18
ATOM     18  N   LIG d   1      -0.624  81.477 112.434  0.00  0.00     0.381 N 
ATOM     19  H   LIG d   1      -0.146  80.660 112.112  0.00  0.00    -0.090 HD
ATOM     20  H   LIG d   1      -1.597  81.250 112.546  0.00  0.00    -0.090 HD
ATOM     21  H   LIG d   1      -0.242  81.773 113.305  0.00  0.00    -0.090 HD
ENDBRANCH   5  18
BRANCH   3  22
ATOM     22  C   LIG d   1      -0.631  86.217 111.745  0.00  0.00     0.382 C 
ATOM     23  O   LIG d   1       0.103  87.231 111.664  0.00  0.00    -0.241 OA
ATOM     24  O   LIG d   1      -1.780  86.327 112.214  0.00  0.00    -0.241 OA
ENDBRANCH   3  22
TORSDOF 7
ENDMDL
MODEL 2
REMARK VINA RESULT:      -6.1      2.426      4.115
REMARK  7 active torsions:
REMARK  status: ('A' for Active; 'I' for Inactive)
REMARK    1  A    between atoms: C_2  and  C_3 
REMARK    2  A    between atoms: C_3  and  O_6 
REMARK    3  A    between atoms: C_3  and  C_4 
REMARK    4  A    between atoms: C_7  and  O_6 
REMARK    5  A    between atoms: C_9  and  C_10 
REMARK    6  A    between atoms: N_15  and  C_14 
REMARK    7  A    between atoms: N_20  and  C_19 
REMARK       I    between atoms: C_22  and  N_20 
ROOT
ATOM      1  C   LIG d   1       0.005  82.461 110.913  0.00  0.00     0.161 C 
ATOM      2  C   LIG d   1      -1.077  82.207 111.772  0.00  0.00     0.016 C 
ATOM      3  C   LIG d   1      -1.443  80.910 112.201  0.00  0.00     0.038 C 
ATOM      4  C   LIG d   1      -0.653  79.786 111.917  0.00  0.00     0.028 C 
ATOM      5  C   LIG d   1       0.164  79.926 110.637  0.00  0.00    -0.047 C 
ATOM      6  C   LIG d   1       0.945  81.259 110.684  0.00  0.00     0.091 C 
ENDROOT
BRANCH   1   7
ATOM      7  O   LIG d   1       0.752  83.597 111.392  0.00  0.00    -0.368 OA
BRANCH   7   8
ATOM      8  C   LIG d   1       0.914  84.693 110.458  0.00  0.00     0.119 C 
BRANCH   8   9
ATOM      9  C   LIG d   1       1.909  85.690 111.082  0.00  0.00     0.028 C 
ATOM     10  C   LIG d   1       3.371  85.348 110.747  0.00  0.00     0.006 C 
ENDBRANCH   8   9
BRANCH   8  11
ATOM     11  C   LIG d   1      -0.391  85.476 110.287  0.00  0.00     0.028 C 
ATOM     12  C   LIG d   1      -0.894  86.091 111.603  0.00  0.00     0.006 C 
ENDBRANCH   8  11
ENDBRANCH   7   8
ENDBRANCH   1   7
BRANCH   6  13
ATOM     13  N   LIG d   1       1.705  81.515 109.432  0.00  0.00    -0.311 N 
ATOM     14  C   LIG d   1       3.017  81.739 109.404  0.00  0.00     0.210 C 
ATOM     15  C   LIG d   1       3.599  82.000 108.012  0.00  0.00     0.109 C 
ATOM     16  O   LIG d   1       3.760  81.714 110.397  0.00  0.00    -0.276 OA
ATOM     17  H   LIG d   1       1.185  81.522 108.576  0.00  0.00     0.149 HD
ENDBRANCH   6  13
BRANCH   5  18
ATOM     18  N   LIG d   1       1.042  78.745 110.537  0.00  0.00     0.381 N 
ATOM     19  H   LIG d   1       1.717  78.886 109.812  0.00  0.00    -0.090 HD
ATOM     20  H   LIG d   1       0.484  77.945 110.297  0.00  0.00    -0.090 HD
ATOM     21  H   LIG d   1       1.504  78.589 111.406  0.00  0.00    -0.090 HD
ENDBRANCH   5  18
BRANCH   3  22
ATOM     22  C   LIG d   1      -2.632  80.723 112.888  0.00  0.00     0.382 C 
ATOM     23  O   LIG d   1      -3.564  81.554 112.765  0.00  0.00    -0.241 OA
ATOM     24  O   LIG d   1      -2.769  79.758 113.663  0.00  0.00    -0.241 OA
ENDBRANCH   3  22
TORSDOF 7
ENDMDL
MODEL 3
REMARK VINA RESULT:      -5.9      2.396      4.772
REMARK  7 active torsions:
REMARK  status: ('A' for Active; 'I' for Inactive)
REMARK    1  A    between atoms: C_2  and  C_3 
REMARK    2  A    between atoms: C_3  and  O_6 
REMARK    3  A    between atoms: C_3  and  C_4 
REMARK    4  A    between atoms: C_7  and  O_6 
REMARK    5  A    between atoms: C_9  and  C_10 
REMARK    6  A    between atoms: N_15  and  C_14 
REMARK    7  A    between atoms: N_20  and  C_19 
REMARK       I    between atoms: C_22  and  N_20 
ROOT
ATOM      1  C   LIG d   1       1.177  81.474 111.882  0.00  0.00     0.161 C 
ATOM      2  C   LIG d   1       2.275  82.024 111.200  0.00  0.00     0.016 C 
ATOM      3  C   LIG d   1       2.457  81.915 109.802  0.00  0.00     0.038 C 
ATOM      4  C   LIG d   1       1.468  81.374 108.966  0.00  0.00     0.028 C 
ATOM      5  C   LIG d   1       0.575  80.356 109.665  0.00  0.00    -0.047 C 
ATOM      6  C   LIG d   1       0.034  80.977 110.973  0.00  0.00     0.091 C 
ENDROOT
BRANCH   1   7
ATOM      7  O   LIG d   1       0.675  82.421 112.845  0.00  0.00    -0.368 OA
BRANCH   7   8
ATOM      8  C   LIG d   1       0.845  83.821 112.511  0.00  0.00     0.119 C 
BRANCH   8   9
ATOM      9  C   LIG d   1       1.350  84.541 113.776  0.00  0.00     0.028 C 
ATOM     10  C   LIG d   1       1.666  86.024 113.521  0.00  0.00     0.006 C 
ENDBRANCH   8   9
BRANCH   8  11
ATOM     11  C   LIG d   1      -0.495  84.481 112.176  0.00  0.00     0.028 C 
ATOM     12  C   LIG d   1      -0.662  84.764 110.675  0.00  0.00     0.006 C 
ENDBRANCH   8  11
ENDBRANCH   7   8
ENDBRANCH   1   7
BRANCH   6  13
ATOM     13  N   LIG d   1      -0.783  80.017 111.761  0.00  0.00    -0.311 N 
ATOM     14  C   LIG d   1      -1.900  80.357 112.400  0.00  0.00     0.210 C 
ATOM     15  C   LIG d   1      -2.577  79.219 113.170  0.00  0.00     0.109 C 
ATOM     16  O   LIG d   1      -2.413  81.487 112.377  0.00  0.00    -0.276 OA
ATOM     17  H   LIG d   1      -0.456  79.072 111.808  0.00  0.00     0.149 HD
ENDBRANCH   6  13
BRANCH   5  18
ATOM     18  N   LIG d   1      -0.493  79.977 108.720  0.00  0.00     0.381 N 
ATOM     19  H   LIG d   1      -0.614  78.984 108.726  0.00  0.00    -0.090 HD
ATOM     20  H   LIG d   1      -0.221  80.255 107.794  0.00  0.00    -0.090 HD
ATOM     21  H   LIG d   1      -1.346  80.424 108.972  0.00  0.00    -0.090 HD
ENDBRANCH   5  18
BRANCH   3  22
ATOM     22  C   LIG d   1       3.656  82.315 109.231  0.00  0.00     0.382 C 
ATOM     23  O   LIG d   1       4.036  81.804 108.150  0.00  0.00    -0.241 OA
ATOM     24  O   LIG d   1       4.383  83.146 109.807  0.00  0.00    -0.241 OA
ENDBRANCH   3  22
TORSDOF 7
ENDMDL
MODEL 4
REMARK VINA RESULT:      -5.7      1.288      2.169
REMARK  7 active torsions:
REMARK  status: ('A' for Active; 'I' for Inactive)
REMARK    1  A    between atoms: C_2  and  C_3 
REMARK    2  A    between atoms: C_3  and  O_6 
REMARK    3  A    between atoms: C_3  and  C_4 
REMARK    4  A    between atoms: C_7  and  O_6 
REMARK    5  A    between atoms: C_9  and  C_10 
REMARK    6  A    between atoms: N_15  and  C_14 
REMARK    7  A    between atoms: N_20  and  C_19 
REMARK       I    between atoms: C_22  and  N_20 
ROOT
ATOM      1  C   LIG d   1       1.453  82.638 110.665  0.00  0.00     0.161 C 
ATOM      2  C   LIG d   1       0.865  83.914 110.700  0.00  0.00     0.016 C 
ATOM      3  C   LIG d   1      -0.386  84.177 111.304  0.00  0.00     0.038 C 
ATOM      4  C   LIG d   1      -1.068  83.205 112.051  0.00  0.00     0.028 C 
ATOM      5  C   LIG d   1      -0.757  81.777 111.615  0.00  0.00    -0.047 C 
ATOM      6  C   LIG d   1       0.777  81.589 111.571  0.00  0.00     0.091 C 
ENDROOT
BRANCH   1   7
ATOM      7  O   LIG d   1       2.857  82.739 110.976  0.00  0.00    -0.368 OA
BRANCH   7   8
ATOM      8  C   LIG d   1       3.603  83.738 110.239  0.00  0.00     0.119 C 
BRANCH   8   9
ATOM      9  C   LIG d   1       4.678  83.001 109.417  0.00  0.00     0.028 C 
ATOM     10  C   LIG d   1       4.069  81.997 108.423  0.00  0.00     0.006 C 
ENDBRANCH   8   9
BRANCH   8  11
ATOM     11  C   LIG d   1       4.379  84.663 111.183  0.00  0.00     0.028 C 
ATOM     12  C   LIG d   1       3.853  86.107 111.168  0.00  0.00     0.006 C 
ENDBRANCH   8  11
ENDBRANCH   7   8
ENDBRANCH   1   7
BRANCH   6  13
ATOM     13  N   LIG d   1       1.168  80.245 111.073  0.00  0.00    -0.311 N 
ATOM     14  C   LIG d   1       0.884  79.805 109.848  0.00  0.00     0.210 C 
ATOM     15  C   LIG d   1       1.362  78.382 109.544  0.00  0.00     0.109 C 
ATOM     16  O   LIG d   1       0.309  80.471 108.974  0.00  0.00    -0.276 OA
ATOM     17  H   LIG d   1       1.666  79.650 111.706  0.00  0.00     0.149 HD
ENDBRANCH   6  13
BRANCH   5  18
ATOM     18  N   LIG d   1      -1.425  80.866 112.563  0.00  0.00     0.381 N 
ATOM     19  H   LIG d   1      -1.079  81.027 113.488  0.00  0.00    -0.090 HD
ATOM     20  H   LIG d   1      -1.212  79.918 112.308  0.00  0.00    -0.090 HD
ATOM     21  H   LIG d   1      -2.410  81.011 112.539  0.00  0.00    -0.090 HD
ENDBRANCH   5  18
BRANCH   3  22
ATOM     22  C   LIG d   1      -0.986  85.415 111.129  0.00  0.00     0.382 C 
ATOM     23  O   LIG d   1      -0.909  86.282 112.033  0.00  0.00    -0.241 OA
ATOM     24  O   LIG d   1      -1.642  85.659 110.099  0.00  0.00    -0.241 OA
ENDBRANCH   3  22
TORSDOF 7
ENDMDL
MODEL 5
REMARK VINA RESULT:      -5.5      1.822      2.593
REMARK  7 active torsions:
REMARK  status: ('A' for Active; 'I' for Inactive)
REMARK    1  A    between atoms: C_2  and  C_3 
REMARK    2  A    between atoms: C_3  and  O_6 
REMARK    3  A    between atoms: C_3  and  C_4 
REMARK    4  A    between atoms: C_7  and  O_6 
REMARK    5  A    between atoms: C_9  and  C_10 
REMARK    6  A    between atoms: N_15  and  C_14 
REMARK    7  A    between atoms: N_20  and  C_19 
REMARK       I    between atoms: C_22  and  N_20 
ROOT
ATOM      1  C   LIG d   1       1.446  81.873 110.805  0.00  0.00     0.161 C 
ATOM      2  C   LIG d   1       1.315  83.243 110.525  0.00  0.00     0.016 C 
ATOM      3  C   LIG d   1       0.170  84.000 110.863  0.00  0.00     0.038 C 
ATOM      4  C   LIG d   1      -0.867  83.468 111.644  0.00  0.00     0.028 C 
ATOM      5  C   LIG d   1      -1.007  81.955 111.515  0.00  0.00    -0.047 C 
ATOM      6  C   LIG d   1       0.373  81.301 111.755  0.00  0.00     0.091 C 
ENDROOT
BRANCH   1   7
ATOM      7  O   LIG d   1       2.766  81.603 111.319  0.00  0.00    -0.368 OA
BRANCH   7   8
ATOM      8  C   LIG d   1       3.737  81.120 110.359  0.00  0.00     0.119 C 
BRANCH   8   9
ATOM      9  C   LIG d   1       4.117  82.305 109.449  0.00  0.00     0.028 C 
ATOM     10  C   LIG d   1       3.953  81.974 107.956  0.00  0.00     0.006 C 
ENDBRANCH   8   9
BRANCH   8  11
ATOM     11  C   LIG d   1       3.125  80.072 109.425  0.00  0.00     0.028 C 
ATOM     12  C   LIG d   1       3.417  78.631 109.874  0.00  0.00     0.006 C 
ENDBRANCH   8  11
ENDBRANCH   7   8
ENDBRANCH   1   7
BRANCH   6  13
ATOM     13  N   LIG d   1       0.343  79.827 111.564  0.00  0.00    -0.311 N 
ATOM     14  C   LIG d   1      -0.173  79.238 110.487  0.00  0.00     0.210 C 
ATOM     15  C   LIG d   1      -0.121  77.707 110.500  0.00  0.00     0.109 C 
ATOM     16  O   LIG d   1      -0.640  79.838 109.508  0.00  0.00    -0.276 OA
ATOM     17  H   LIG d   1       0.730  79.265 112.296  0.00  0.00     0.149 HD
ENDBRANCH   6  13
BRANCH   5  18
ATOM     18  N   LIG d   1      -2.030  81.518 112.484  0.00  0.00     0.381 N 
ATOM     19  H   LIG d   1      -2.941  81.753 112.144  0.00  0.00    -0.090 HD
ATOM     20  H   LIG d   1      -1.883  82.001 113.353  0.00  0.00    -0.090 HD
ATOM     21  H   LIG d   1      -1.964  80.534 112.628  0.00  0.00    -0.090 HD
ENDBRANCH   5  18
BRANCH   3  22
ATOM     22  C   LIG d   1       0.035  85.294 110.384  0.00  0.00     0.382 C 
ATOM     23  O   LIG d   1      -1.082  85.701 109.983  0.00  0.00    -0.241 OA
ATOM     24  O   LIG d   1       1.026  86.046 110.307  0.00  0.00    -0.241 OA
ENDBRANCH   3  22
TORSDOF 7
ENDMDL
MODEL 6
REMARK VINA RESULT:      -5.5      2.549      3.859
REMARK  7 active torsions:
REMARK  status: ('A' for Active; 'I' for Inactive)
REMARK    1  A    between atoms: C_2  and  C_3 
REMARK    2  A    between atoms: C_3  and  O_6 
REMARK    3  A    between atoms: C_3  and  C_4 
REMARK    4  A    between atoms: C_7  and  O_6 
REMARK    5  A    between atoms: C_9  and  C_10 
REMARK    6  A    between atoms: N_15  and  C_14 
REMARK    7  A    between atoms: N_20  and  C_19 
REMARK       I    between atoms: C_22  and  N_20 
ROOT
ATOM      1  C   LIG d   1       0.206  82.600 110.950  0.00  0.00     0.161 C 
ATOM      2  C   LIG d   1      -0.861  82.299 111.813  0.00  0.00     0.016 C 
ATOM      3  C   LIG d   1      -1.241  80.979 112.149  0.00  0.00     0.038 C 
ATOM      4  C   LIG d   1      -0.480  79.866 111.761  0.00  0.00     0.028 C 
ATOM      5  C   LIG d   1       0.309  80.091 110.476  0.00  0.00    -0.047 C 
ATOM      6  C   LIG d   1       1.117  81.403 110.605  0.00  0.00     0.091 C 
ENDROOT
BRANCH   1   7
ATOM      7  O   LIG d   1       0.986  83.682 111.495  0.00  0.00    -0.368 OA
BRANCH   7   8
ATOM      8  C   LIG d   1       2.168  83.302 112.242  0.00  0.00     0.119 C 
BRANCH   8   9
ATOM      9  C   LIG d   1       1.878  83.565 113.733  0.00  0.00     0.028 C 
ATOM     10  C   LIG d   1       1.756  82.264 114.545  0.00  0.00     0.006 C 
ENDBRANCH   8   9
BRANCH   8  11
ATOM     11  C   LIG d   1       3.358  84.201 111.896  0.00  0.00     0.028 C 
ATOM     12  C   LIG d   1       3.215  84.878 110.524  0.00  0.00     0.006 C 
ENDBRANCH   8  11
ENDBRANCH   7   8
ENDBRANCH   1   7
BRANCH   6  13
ATOM     13  N   LIG d   1       1.852  81.741 109.359  0.00  0.00    -0.311 N 
ATOM     14  C   LIG d   1       3.124  81.410 109.145  0.00  0.00     0.210 C 
ATOM     15  C   LIG d   1       3.696  81.873 107.802  0.00  0.00     0.109 C 
ATOM     16  O   LIG d   1       3.824  80.748 109.927  0.00  0.00    -0.276 OA
ATOM     17  H   LIG d   1       1.351  82.250 108.657  0.00  0.00     0.149 HD
ENDBRANCH   6  13
BRANCH   5  18
ATOM     18  N   LIG d   1       1.161  78.906 110.263  0.00  0.00     0.381 N 
ATOM     19  H   LIG d   1       2.074  79.193 109.972  0.00  0.00    -0.090 HD
ATOM     20  H   LIG d   1       0.760  78.343 109.534  0.00  0.00    -0.090 HD
ATOM     21  H   LIG d   1       1.225  78.376 111.105  0.00  0.00    -0.090 HD
ENDBRANCH   5  18
BRANCH   3  22
ATOM     22  C   LIG d   1      -2.418  80.760 112.849  0.00  0.00     0.382 C 
ATOM     23  O   LIG d   1      -2.541  79.737 113.564  0.00  0.00    -0.241 OA
ATOM     24  O   LIG d   1      -3.374  81.551 112.740  0.00  0.00    -0.241 OA
ENDBRANCH   3  22
TORSDOF 7
ENDMDL
MODEL 7
REMARK VINA RESULT:      -4.6      2.915      4.187
REMARK  7 active torsions:
REMARK  status: ('A' for Active; 'I' for Inactive)
REMARK    1  A    between atoms: C_2  and  C_3 
REMARK    2  A    between atoms: C_3  and  O_6 
REMARK    3  A    between atoms: C_3  and  C_4 
REMARK    4  A    between atoms: C_7  and  O_6 
REMARK    5  A    between atoms: C_9  and  C_10 
REMARK    6  A    between atoms: N_15  and  C_14 
REMARK    7  A    between atoms: N_20  and  C_19 
REMARK       I    between atoms: C_22  and  N_20 
ROOT
ATOM      1  C   LIG d   1      -0.026  80.854 110.819  0.00  0.00     0.161 C 
ATOM      2  C   LIG d   1      -0.982  81.121 111.812  0.00  0.00     0.016 C 
ATOM      3  C   LIG d   1      -1.830  80.133 112.362  0.00  0.00     0.038 C 
ATOM      4  C   LIG d   1      -1.674  78.771 112.061  0.00  0.00     0.028 C 
ATOM      5  C   LIG d   1      -1.060  78.521 110.688  0.00  0.00    -0.047 C 
ATOM      6  C   LIG d   1       0.235  79.356 110.558  0.00  0.00     0.091 C 
ENDROOT
BRANCH   1   7
ATOM      7  O   LIG d   1       1.208  81.530 111.133  0.00  0.00    -0.368 OA
BRANCH   7   8
ATOM      8  C   LIG d   1       1.453  82.771 110.427  0.00  0.00     0.119 C 
BRANCH   8   9
ATOM      9  C   LIG d   1       2.105  82.415 109.077  0.00  0.00     0.028 C 
ATOM     10  C   LIG d   1       1.492  83.198 107.904  0.00  0.00     0.006 C 
ENDBRANCH   8   9
BRANCH   8  11
ATOM     11  C   LIG d   1       2.483  83.635 111.160  0.00  0.00     0.028 C 
ATOM     12  C   LIG d   1       3.930  83.305 110.760  0.00  0.00     0.006 C 
ENDBRANCH   8  11
ENDBRANCH   7   8
ENDBRANCH   1   7
BRANCH   6  13
ATOM     13  N   LIG d   1       0.854  79.234 109.213  0.00  0.00    -0.311 N 
ATOM     14  C   LIG d   1       2.036  78.657 108.999  0.00  0.00     0.210 C 
ATOM     15  C   LIG d   1       2.500  78.655 107.539  0.00  0.00     0.109 C 
ATOM     16  O   LIG d   1       2.728  78.117 109.875  0.00  0.00    -0.276 OA
ATOM     17  H   LIG d   1       0.346  79.618 108.440  0.00  0.00     0.149 HD
ENDBRANCH   6  13
BRANCH   5  18
ATOM     18  N   LIG d   1      -0.827  77.070 110.562  0.00  0.00     0.381 N 
ATOM     19  H   LIG d   1      -1.671  76.616 110.273  0.00  0.00    -0.090 HD
ATOM     20  H   LIG d   1      -0.563  76.704 111.460  0.00  0.00    -0.090 HD
ATOM     21  H   LIG d   1      -0.105  76.897 109.899  0.00  0.00    -0.090 HD
ENDBRANCH   5  18
BRANCH   3  22
ATOM     22  C   LIG d   1      -2.874  80.508 113.194  0.00  0.00     0.382 C 
ATOM     23  O   LIG d   1      -3.593  81.491 112.893  0.00  0.00    -0.241 OA
ATOM     24  O   LIG d   1      -3.078  79.903 114.264  0.00  0.00    -0.241 OA
ENDBRANCH   3  22
TORSDOF 7
ENDMDL
MODEL 8
REMARK VINA RESULT:      -4.0     28.954     30.823
REMARK  7 active torsions:
REMARK  status: ('A' for Active; 'I' for Inactive)
REMARK    1  A    between atoms: C_2  and  C_3 
REMARK    2  A    between atoms: C_3  and  O_6 
REMARK    3  A    between atoms: C_3  and  C_4 
REMARK    4  A    between atoms: C_7  and  O_6 
REMARK    5  A    between atoms: C_9  and  C_10 
REMARK    6  A    between atoms: N_15  and  C_14 
REMARK    7  A    between atoms: N_20  and  C_19 
REMARK       I    between atoms: C_22  and  N_20 
ROOT
ATOM      1  C   LIG d   1     -26.954  70.750 110.446  0.00  0.00     0.161 C 
ATOM      2  C   LIG d   1     -26.233  71.902 110.801  0.00  0.00     0.016 C 
ATOM      3  C   LIG d   1     -26.395  73.150 110.157  0.00  0.00     0.038 C 
ATOM      4  C   LIG d   1     -27.407  73.370 109.210  0.00  0.00     0.028 C 
ATOM      5  C   LIG d   1     -27.821  72.107 108.463  0.00  0.00    -0.047 C 
ATOM      6  C   LIG d   1     -28.140  70.998 109.491  0.00  0.00     0.091 C 
ENDROOT
BRANCH   1   7
ATOM      7  O   LIG d   1     -27.403  70.070 111.635  0.00  0.00    -0.368 OA
BRANCH   7   8
ATOM      8  C   LIG d   1     -26.674  68.871 111.998  0.00  0.00     0.119 C 
BRANCH   8   9
ATOM      9  C   LIG d   1     -25.810  69.209 113.228  0.00  0.00     0.028 C 
ATOM     10  C   LIG d   1     -26.495  70.217 114.167  0.00  0.00     0.006 C 
ENDBRANCH   8   9
BRANCH   8  11
ATOM     11  C   LIG d   1     -25.680  68.471 110.903  0.00  0.00     0.028 C 
ATOM     12  C   LIG d   1     -24.279  68.161 111.454  0.00  0.00     0.006 C 
ENDBRANCH   8  11
ENDBRANCH   7   8
ENDBRANCH   1   7
BRANCH   6  13
ATOM     13  N   LIG d   1     -28.474  69.703 108.842  0.00  0.00    -0.311 N 
ATOM     14  C   LIG d   1     -27.711  69.131 107.912  0.00  0.00     0.210 C 
ATOM     15  C   LIG d   1     -28.249  67.807 107.359  0.00  0.00     0.109 C 
ATOM     16  O   LIG d   1     -26.625  69.579 107.515  0.00  0.00    -0.276 OA
ATOM     17  H   LIG d   1     -29.322  69.255 109.128  0.00  0.00     0.149 HD
ENDBRANCH   6  13
BRANCH   5  18
ATOM     18  N   LIG d   1     -28.974  72.453 107.609  0.00  0.00     0.381 N 
ATOM     19  H   LIG d   1     -28.675  72.546 106.659  0.00  0.00    -0.090 HD
ATOM     20  H   LIG d   1     -29.348  73.335 107.910  0.00  0.00    -0.090 HD
ATOM     21  H   LIG d   1     -29.673  71.746 107.677  0.00  0.00    -0.090 HD
ENDBRANCH   5  18
BRANCH   3  22
ATOM     22  C   LIG d   1     -25.514  74.185 110.432  0.00  0.00     0.382 C 
ATOM     23  O   LIG d   1     -25.843  75.093 111.233  0.00  0.00    -0.241 OA
ATOM     24  O   LIG d   1     -24.412  74.245 109.855  0.00  0.00    -0.241 OA
ENDBRANCH   3  22
TORSDOF 7
ENDMDL
MODEL 9
REMARK VINA RESULT:      -3.9     28.822     30.755
REMARK  7 active torsions:
REMARK  status: ('A' for Active; 'I' for Inactive)
REMARK    1  A    between atoms: C_2  and  C_3 
REMARK    2  A    between atoms: C_3  and  O_6 
REMARK    3  A    between atoms: C_3  and  C_4 
REMARK    4  A    between atoms: C_7  and  O_6 
REMARK    5  A    between atoms: C_9  and  C_10 
REMARK    6  A    between atoms: N_15  and  C_14 
REMARK    7  A    between atoms: N_20  and  C_19 
REMARK       I    between atoms: C_22  and  N_20 
ROOT
ATOM      1  C   LIG d   1     -26.360  68.772 111.304  0.00  0.00     0.161 C 
ATOM      2  C   LIG d   1     -25.435  68.938 112.349  0.00  0.00     0.016 C 
ATOM      3  C   LIG d   1     -24.101  68.473 112.288  0.00  0.00     0.038 C 
ATOM      4  C   LIG d   1     -23.554  67.942 111.111  0.00  0.00     0.028 C 
ATOM      5  C   LIG d   1     -24.591  67.296 110.199  0.00  0.00    -0.047 C 
ATOM      6  C   LIG d   1     -25.749  68.294 109.970  0.00  0.00     0.091 C 
ENDROOT
BRANCH   1   7
ATOM      7  O   LIG d   1     -27.099  69.994 111.107  0.00  0.00    -0.368 OA
BRANCH   7   8
ATOM      8  C   LIG d   1     -26.473  70.988 110.259  0.00  0.00     0.119 C 
BRANCH   8   9
ATOM      9  C   LIG d   1     -26.306  72.271 111.096  0.00  0.00     0.028 C 
ATOM     10  C   LIG d   1     -25.816  73.461 110.255  0.00  0.00     0.006 C 
ENDBRANCH   8   9
BRANCH   8  11
ATOM     11  C   LIG d   1     -27.385  71.380 109.093  0.00  0.00     0.028 C 
ATOM     12  C   LIG d   1     -28.805  70.809 109.229  0.00  0.00     0.006 C 
ENDBRANCH   8  11
ENDBRANCH   7   8
ENDBRANCH   1   7
BRANCH   6  13
ATOM     13  N   LIG d   1     -26.847  67.711 109.156  0.00  0.00    -0.311 N 
ATOM     14  C   LIG d   1     -26.949  67.874 107.838  0.00  0.00     0.210 C 
ATOM     15  C   LIG d   1     -28.169  67.205 107.196  0.00  0.00     0.109 C 
ATOM     16  O   LIG d   1     -26.128  68.482 107.135  0.00  0.00    -0.276 OA
ATOM     17  H   LIG d   1     -27.541  67.176 109.642  0.00  0.00     0.149 HD
ENDBRANCH   6  13
BRANCH   5  18
ATOM     18  N   LIG d   1     -23.907  66.908 108.950  0.00  0.00     0.381 N 
ATOM     19  H   LIG d   1     -24.023  67.626 108.263  0.00  0.00    -0.090 HD
ATOM     20  H   LIG d   1     -24.325  66.065 108.599  0.00  0.00    -0.090 HD
ATOM     21  H   LIG d   1     -22.937  66.760 109.125  0.00  0.00    -0.090 HD
ENDBRANCH   5  18
BRANCH   3  22
ATOM     22  C   LIG d   1     -23.311  68.502 113.427  0.00  0.00     0.382 C 
ATOM     23  O   LIG d   1     -23.830  68.314 114.555  0.00  0.00    -0.241 OA
ATOM     24  O   LIG d   1     -22.095  68.758 113.346  0.00  0.00    -0.241 OA
ENDBRANCH   3  22
TORSDOF 7
ENDMDL
