MODEL 1
REMARK VINA RESULT:      -6.9      0.000      0.000
REMARK  7 active torsions:
REMARK  status: ('A' for Active; 'I' for Inactive)
REMARK    1  A    between atoms: C_2  and  C_3 
REMARK    2  A    between atoms: C_3  and  O_6 
REMARK    3  A    between atoms: C_3  and  C_4 
REMARK    4  A    between atoms: C_7  and  O_6 
REMARK    5  A    between atoms: C_9  and  C_10 
REMARK    6  A    between atoms: N_15  and  C_14 
REMARK    7  A    between atoms: N_20  and  C_19 
REMARK       I    between atoms: C_22  and  N_20 
ROOT
ATOM      1  C   LIG d   1       0.363  82.888 111.250  0.00  0.00     0.161 C 
ATOM      2  C   LIG d   1      -0.713  82.523 112.076  0.00  0.00     0.016 C 
ATOM      3  C   LIG d   1      -1.291  81.232 112.075  0.00  0.00     0.038 C 
ATOM      4  C   LIG d   1      -0.729  80.169 111.353  0.00  0.00     0.028 C 
ATOM      5  C   LIG d   1       0.049  80.618 110.121  0.00  0.00    -0.047 C 
ATOM      6  C   LIG d   1       1.060  81.711 110.537  0.00  0.00     0.091 C 
ENDROOT
BRANCH   1   7
ATOM      7  O   LIG d   1       1.322  83.653 112.008  0.00  0.00    -0.368 OA
BRANCH   7   8
ATOM      8  C   LIG d   1       1.529  85.021 111.577  0.00  0.00     0.119 C 
BRANCH   8   9
ATOM      9  C   LIG d   1       0.452  85.342 110.522  0.00  0.00     0.028 C 
ATOM     10  C   LIG d   1      -0.479  86.484 110.962  0.00  0.00     0.006 C 
ENDBRANCH   8   9
BRANCH   8  11
ATOM     11  C   LIG d   1       2.868  85.180 110.851  0.00  0.00     0.028 C 
ATOM     12  C   LIG d   1       3.767  86.252 111.487  0.00  0.00     0.006 C 
ENDBRANCH   8  11
ENDBRANCH   7   8
ENDBRANCH   1   7
BRANCH   6  13
ATOM     13  N   LIG d   1       1.805  82.265 109.377  0.00  0.00    -0.311 N 
ATOM     14  C   LIG d   1       2.988  81.803 108.976  0.00  0.00     0.210 C 
ATOM     15  C   LIG d   1       3.592  82.530 107.771  0.00  0.00     0.109 C 
ATOM     16  O   LIG d   1       3.580  80.838 109.485  0.00  0.00    -0.276 OA
ATOM     17  H   LIG d   1       1.383  83.029 108.887  0.00  0.00     0.149 HD
ENDBRANCH   6  13
BRANCH   5  18
ATOM     18  N   LIG d   1       0.694  79.424 109.542  0.00  0.00     0.381 N 
ATOM     19  H   LIG d   1       1.540  79.688 109.077  0.00  0.00    -0.090 HD
ATOM     20  H   LIG d   1       0.075  79.016 108.864  0.00  0.00    -0.090 HD
ATOM     21  H   LIG d   1       0.894  78.763 110.260  0.00  0.00    -0.090 HD
ENDBRANCH   5  18
BRANCH   3  22
ATOM     22  C   LIG d   1      -2.468  81.006 112.773  0.00  0.00     0.382 C 
ATOM     23  O   LIG d   1      -2.855  79.832 112.985  0.00  0.00    -0.241 OA
ATOM     24  O   LIG d   1      -3.170  81.962 113.155  0.00  0.00    -0.241 OA
ENDBRANCH   3  22
TORSDOF 7
ENDMDL
MODEL 2
REMARK VINA RESULT:      -6.7      1.536      4.928
REMARK  7 active torsions:
REMARK  status: ('A' for Active; 'I' for Inactive)
REMARK    1  A    between atoms: C_2  and  C_3 
REMARK    2  A    between atoms: C_3  and  O_6 
REMARK    3  A    between atoms: C_3  and  C_4 
REMARK    4  A    between atoms: C_7  and  O_6 
REMARK    5  A    between atoms: C_9  and  C_10 
REMARK    6  A    between atoms: N_15  and  C_14 
REMARK    7  A    between atoms: N_20  and  C_19 
REMARK       I    between atoms: C_22  and  N_20 
ROOT
ATOM      1  C   LIG d   1       1.878  82.685 111.776  0.00  0.00     0.161 C 
ATOM      2  C   LIG d   1       2.818  82.882 110.750  0.00  0.00     0.016 C 
ATOM      3  C   LIG d   1       2.781  82.189 109.518  0.00  0.00     0.038 C 
ATOM      4  C   LIG d   1       1.707  81.358 109.167  0.00  0.00     0.028 C 
ATOM      5  C   LIG d   1       1.000  80.741 110.369  0.00  0.00    -0.047 C 
ATOM      6  C   LIG d   1       0.637  81.864 111.367  0.00  0.00     0.091 C 
ENDROOT
BRANCH   1   7
ATOM      7  O   LIG d   1       1.479  83.957 112.323  0.00  0.00    -0.368 OA
BRANCH   7   8
ATOM      8  C   LIG d   1       1.304  85.035 111.370  0.00  0.00     0.119 C 
BRANCH   8   9
ATOM      9  C   LIG d   1       1.919  86.305 111.989  0.00  0.00     0.028 C 
ATOM     10  C   LIG d   1       3.421  86.436 111.688  0.00  0.00     0.006 C 
ENDBRANCH   8   9
BRANCH   8  11
ATOM     11  C   LIG d   1      -0.179  85.361 111.165  0.00  0.00     0.028 C 
ATOM     12  C   LIG d   1      -0.531  86.804 111.559  0.00  0.00     0.006 C 
ENDBRANCH   8  11
ENDBRANCH   7   8
ENDBRANCH   1   7
BRANCH   6  13
ATOM     13  N   LIG d   1       0.016  81.338 112.611  0.00  0.00    -0.311 N 
ATOM     14  C   LIG d   1      -1.300  81.276 112.804  0.00  0.00     0.210 C 
ATOM     15  C   LIG d   1      -1.729  80.718 114.165  0.00  0.00     0.109 C 
ATOM     16  O   LIG d   1      -2.154  81.599 111.964  0.00  0.00    -0.276 OA
ATOM     17  H   LIG d   1       0.636  81.025 113.332  0.00  0.00     0.149 HD
ENDBRANCH   6  13
BRANCH   5  18
ATOM     18  N   LIG d   1      -0.179  80.012 109.866  0.00  0.00     0.381 N 
ATOM     19  H   LIG d   1      -0.211  80.065 108.867  0.00  0.00    -0.090 HD
ATOM     20  H   LIG d   1      -1.010  80.444 110.231  0.00  0.00    -0.090 HD
ATOM     21  H   LIG d   1      -0.139  79.059 110.153  0.00  0.00    -0.090 HD
ENDBRANCH   5  18
BRANCH   3  22
ATOM     22  C   LIG d   1       3.848  82.295 108.638  0.00  0.00     0.382 C 
ATOM     23  O   LIG d   1       3.739  81.861 107.466  0.00  0.00    -0.241 OA
ATOM     24  O   LIG d   1       4.932  82.779 109.015  0.00  0.00    -0.241 OA
ENDBRANCH   3  22
TORSDOF 7
ENDMDL
MODEL 3
REMARK VINA RESULT:      -6.1      2.291      5.448
REMARK  7 active torsions:
REMARK  status: ('A' for Active; 'I' for Inactive)
REMARK    1  A    between atoms: C_2  and  C_3 
REMARK    2  A    between atoms: C_3  and  O_6 
REMARK    3  A    between atoms: C_3  and  C_4 
REMARK    4  A    between atoms: C_7  and  O_6 
REMARK    5  A    between atoms: C_9  and  C_10 
REMARK    6  A    between atoms: N_15  and  C_14 
REMARK    7  A    between atoms: N_20  and  C_19 
REMARK       I    between atoms: C_22  and  N_20 
ROOT
ATOM      1  C   LIG d   1       0.447  82.542 110.451  0.00  0.00     0.161 C 
ATOM      2  C   LIG d   1       1.264  81.464 110.071  0.00  0.00     0.016 C 
ATOM      3  C   LIG d   1       2.657  81.580 109.859  0.00  0.00     0.038 C 
ATOM      4  C   LIG d   1       3.357  82.757 110.161  0.00  0.00     0.028 C 
ATOM      5  C   LIG d   1       2.500  84.014 110.064  0.00  0.00    -0.047 C 
ATOM      6  C   LIG d   1       1.211  83.808 110.892  0.00  0.00     0.091 C 
ENDROOT
BRANCH   1   7
ATOM      7  O   LIG d   1      -0.467  82.123 111.483  0.00  0.00    -0.368 OA
BRANCH   7   8
ATOM      8  C   LIG d   1      -0.125  80.901 112.180  0.00  0.00     0.119 C 
BRANCH   8   9
ATOM      9  C   LIG d   1      -1.376  80.001 112.179  0.00  0.00     0.028 C 
ATOM     10  C   LIG d   1      -2.622  80.728 112.711  0.00  0.00     0.006 C 
ENDBRANCH   8   9
BRANCH   8  11
ATOM     11  C   LIG d   1       0.181  81.168 113.657  0.00  0.00     0.028 C 
ATOM     12  C   LIG d   1       1.637  81.600 113.895  0.00  0.00     0.006 C 
ENDBRANCH   8  11
ENDBRANCH   7   8
ENDBRANCH   1   7
BRANCH   6  13
ATOM     13  N   LIG d   1       0.277  84.959 110.783  0.00  0.00    -0.311 N 
ATOM     14  C   LIG d   1       0.313  86.012 111.596  0.00  0.00     0.210 C 
ATOM     15  C   LIG d   1      -0.753  87.078 111.322  0.00  0.00     0.109 C 
ATOM     16  O   LIG d   1       1.147  86.181 112.499  0.00  0.00    -0.276 OA
ATOM     17  H   LIG d   1      -0.413  84.919 110.058  0.00  0.00     0.149 HD
ENDBRANCH   6  13
BRANCH   5  18
ATOM     18  N   LIG d   1       3.316  85.148 110.536  0.00  0.00     0.381 N 
ATOM     19  H   LIG d   1       3.129  85.956 109.977  0.00  0.00    -0.090 HD
ATOM     20  H   LIG d   1       4.288  84.913 110.436  0.00  0.00    -0.090 HD
ATOM     21  H   LIG d   1       3.110  85.342 111.491  0.00  0.00    -0.090 HD
ENDBRANCH   5  18
BRANCH   3  22
ATOM     22  C   LIG d   1       3.357  80.521 109.302  0.00  0.00     0.382 C 
ATOM     23  O   LIG d   1       2.737  79.540 108.826  0.00  0.00    -0.241 OA
ATOM     24  O   LIG d   1       4.603  80.514 109.309  0.00  0.00    -0.241 OA
ENDBRANCH   3  22
TORSDOF 7
ENDMDL
MODEL 4
REMARK VINA RESULT:      -6.1      2.110      3.890
REMARK  7 active torsions:
REMARK  status: ('A' for Active; 'I' for Inactive)
REMARK    1  A    between atoms: C_2  and  C_3 
REMARK    2  A    between atoms: C_3  and  O_6 
REMARK    3  A    between atoms: C_3  and  C_4 
REMARK    4  A    between atoms: C_7  and  O_6 
REMARK    5  A    between atoms: C_9  and  C_10 
REMARK    6  A    between atoms: N_15  and  C_14 
REMARK    7  A    between atoms: N_20  and  C_19 
REMARK       I    between atoms: C_22  and  N_20 
ROOT
ATOM      1  C   LIG d   1       1.767  82.289 112.218  0.00  0.00     0.161 C 
ATOM      2  C   LIG d   1       0.673  81.424 112.380  0.00  0.00     0.016 C 
ATOM      3  C   LIG d   1      -0.665  81.807 112.132  0.00  0.00     0.038 C 
ATOM      4  C   LIG d   1      -0.988  83.044 111.555  0.00  0.00     0.028 C 
ATOM      5  C   LIG d   1       0.039  84.134 111.846  0.00  0.00    -0.047 C 
ATOM      6  C   LIG d   1       1.446  83.608 111.483  0.00  0.00     0.091 C 
ENDROOT
BRANCH   1   7
ATOM      7  O   LIG d   1       2.844  81.596 111.555  0.00  0.00    -0.368 OA
BRANCH   7   8
ATOM      8  C   LIG d   1       2.897  81.731 110.114  0.00  0.00     0.119 C 
BRANCH   8   9
ATOM      9  C   LIG d   1       2.503  80.371 109.506  0.00  0.00     0.028 C 
ATOM     10  C   LIG d   1       1.094  80.389 108.892  0.00  0.00     0.006 C 
ENDBRANCH   8   9
BRANCH   8  11
ATOM     11  C   LIG d   1       4.327  81.992 109.631  0.00  0.00     0.028 C 
ATOM     12  C   LIG d   1       4.434  82.074 108.100  0.00  0.00     0.006 C 
ENDBRANCH   8  11
ENDBRANCH   7   8
ENDBRANCH   1   7
BRANCH   6  13
ATOM     13  N   LIG d   1       2.518  84.581 111.816  0.00  0.00    -0.311 N 
ATOM     14  C   LIG d   1       2.884  85.574 111.007  0.00  0.00     0.210 C 
ATOM     15  C   LIG d   1       4.024  86.451 111.534  0.00  0.00     0.109 C 
ATOM     16  O   LIG d   1       2.351  85.831 109.917  0.00  0.00    -0.276 OA
ATOM     17  H   LIG d   1       2.983  84.465 112.695  0.00  0.00     0.149 HD
ENDBRANCH   6  13
BRANCH   5  18
ATOM     18  N   LIG d   1      -0.349  85.329 111.073  0.00  0.00     0.381 N 
ATOM     19  H   LIG d   1       0.468  85.775 110.707  0.00  0.00    -0.090 HD
ATOM     20  H   LIG d   1      -0.814  85.976 111.686  0.00  0.00    -0.090 HD
ATOM     21  H   LIG d   1      -0.957  85.070 110.328  0.00  0.00    -0.090 HD
ENDBRANCH   5  18
BRANCH   3  22
ATOM     22  C   LIG d   1      -1.701  80.961 112.499  0.00  0.00     0.382 C 
ATOM     23  O   LIG d   1      -1.455  79.779 112.840  0.00  0.00    -0.241 OA
ATOM     24  O   LIG d   1      -2.883  81.353 112.451  0.00  0.00    -0.241 OA
ENDBRANCH   3  22
TORSDOF 7
ENDMDL
MODEL 5
REMARK VINA RESULT:      -6.1      2.535      5.083
REMARK  7 active torsions:
REMARK  status: ('A' for Active; 'I' for Inactive)
REMARK    1  A    between atoms: C_2  and  C_3 
REMARK    2  A    between atoms: C_3  and  O_6 
REMARK    3  A    between atoms: C_3  and  C_4 
REMARK    4  A    between atoms: C_7  and  O_6 
REMARK    5  A    between atoms: C_9  and  C_10 
REMARK    6  A    between atoms: N_15  and  C_14 
REMARK    7  A    between atoms: N_20  and  C_19 
REMARK       I    between atoms: C_22  and  N_20 
ROOT
ATOM      1  C   LIG d   1       3.019  82.472 111.053  0.00  0.00     0.161 C 
ATOM      2  C   LIG d   1       3.104  83.800 111.504  0.00  0.00     0.016 C 
ATOM      3  C   LIG d   1       2.736  84.914 110.715  0.00  0.00     0.038 C 
ATOM      4  C   LIG d   1       2.113  84.766 109.467  0.00  0.00     0.028 C 
ATOM      5  C   LIG d   1       2.471  83.462 108.762  0.00  0.00    -0.047 C 
ATOM      6  C   LIG d   1       2.237  82.284 109.736  0.00  0.00     0.091 C 
ENDROOT
BRANCH   1   7
ATOM      7  O   LIG d   1       2.463  81.639 112.090  0.00  0.00    -0.368 OA
BRANCH   7   8
ATOM      8  C   LIG d   1       1.425  82.240 112.902  0.00  0.00     0.119 C 
BRANCH   8   9
ATOM      9  C   LIG d   1       1.434  81.526 114.268  0.00  0.00     0.028 C 
ATOM     10  C   LIG d   1       0.114  80.791 114.554  0.00  0.00     0.006 C 
ENDBRANCH   8   9
BRANCH   8  11
ATOM     11  C   LIG d   1       0.035  81.977 112.316  0.00  0.00     0.028 C 
ATOM     12  C   LIG d   1      -0.571  83.217 111.640  0.00  0.00     0.006 C 
ENDBRANCH   8  11
ENDBRANCH   7   8
ENDBRANCH   1   7
BRANCH   6  13
ATOM     13  N   LIG d   1       2.643  80.978 109.155  0.00  0.00    -0.311 N 
ATOM     14  C   LIG d   1       1.795  79.971 108.952  0.00  0.00     0.210 C 
ATOM     15  C   LIG d   1       2.424  78.706 108.360  0.00  0.00     0.109 C 
ATOM     16  O   LIG d   1       0.576  80.017 109.176  0.00  0.00    -0.276 OA
ATOM     17  H   LIG d   1       3.609  80.866 108.915  0.00  0.00     0.149 HD
ENDBRANCH   6  13
BRANCH   5  18
ATOM     18  N   LIG d   1       1.647  83.374 107.542  0.00  0.00     0.381 N 
ATOM     19  H   LIG d   1       1.489  84.291 107.174  0.00  0.00    -0.090 HD
ATOM     20  H   LIG d   1       0.758  82.971 107.778  0.00  0.00    -0.090 HD
ATOM     21  H   LIG d   1       2.106  82.810 106.861  0.00  0.00    -0.090 HD
ENDBRANCH   5  18
BRANCH   3  22
ATOM     22  C   LIG d   1       3.029  86.195 111.157  0.00  0.00     0.382 C 
ATOM     23  O   LIG d   1       2.259  87.146 110.878  0.00  0.00    -0.241 OA
ATOM     24  O   LIG d   1       4.076  86.420 111.793  0.00  0.00    -0.241 OA
ENDBRANCH   3  22
TORSDOF 7
ENDMDL
MODEL 6
REMARK VINA RESULT:      -5.7      2.711      4.934
REMARK  7 active torsions:
REMARK  status: ('A' for Active; 'I' for Inactive)
REMARK    1  A    between atoms: C_2  and  C_3 
REMARK    2  A    between atoms: C_3  and  O_6 
REMARK    3  A    between atoms: C_3  and  C_4 
REMARK    4  A    between atoms: C_7  and  O_6 
REMARK    5  A    between atoms: C_9  and  C_10 
REMARK    6  A    between atoms: N_15  and  C_14 
REMARK    7  A    between atoms: N_20  and  C_19 
REMARK       I    between atoms: C_22  and  N_20 
ROOT
ATOM      1  C   LIG d   1       2.539  84.207 111.693  0.00  0.00     0.161 C 
ATOM      2  C   LIG d   1       1.636  83.133 111.758  0.00  0.00     0.016 C 
ATOM      3  C   LIG d   1       0.237  83.283 111.613  0.00  0.00     0.038 C 
ATOM      4  C   LIG d   1      -0.343  84.504 111.239  0.00  0.00     0.028 C 
ATOM      5  C   LIG d   1       0.479  85.719 111.658  0.00  0.00    -0.047 C 
ATOM      6  C   LIG d   1       1.935  85.530 111.176  0.00  0.00     0.091 C 
ENDROOT
BRANCH   1   7
ATOM      7  O   LIG d   1       3.684  83.835 110.900  0.00  0.00    -0.368 OA
BRANCH   7   8
ATOM      8  C   LIG d   1       3.474  82.776 109.935  0.00  0.00     0.119 C 
BRANCH   8   9
ATOM      9  C   LIG d   1       4.759  81.926 109.893  0.00  0.00     0.028 C 
ATOM     10  C   LIG d   1       4.529  80.545 109.257  0.00  0.00     0.006 C 
ENDBRANCH   8   9
BRANCH   8  11
ATOM     11  C   LIG d   1       3.311  83.336 108.519  0.00  0.00     0.028 C 
ATOM     12  C   LIG d   1       1.896  83.129 107.955  0.00  0.00     0.006 C 
ENDBRANCH   8  11
ENDBRANCH   7   8
ENDBRANCH   1   7
BRANCH   6  13
ATOM     13  N   LIG d   1       2.826  86.634 111.617  0.00  0.00    -0.311 N 
ATOM     14  C   LIG d   1       2.988  86.980 112.893  0.00  0.00     0.210 C 
ATOM     15  C   LIG d   1       3.937  88.160 113.128  0.00  0.00     0.109 C 
ATOM     16  O   LIG d   1       2.460  86.402 113.855  0.00  0.00    -0.276 OA
ATOM     17  H   LIG d   1       3.317  87.137 110.904  0.00  0.00     0.149 HD
ENDBRANCH   6  13
BRANCH   5  18
ATOM     18  N   LIG d   1      -0.169  86.914 111.087  0.00  0.00     0.381 N 
ATOM     19  H   LIG d   1       0.519  87.615 110.898  0.00  0.00    -0.090 HD
ATOM     20  H   LIG d   1      -0.820  87.283 111.758  0.00  0.00    -0.090 HD
ATOM     21  H   LIG d   1      -0.648  86.674 110.247  0.00  0.00    -0.090 HD
ENDBRANCH   5  18
BRANCH   3  22
ATOM     22  C   LIG d   1      -0.600  82.211 111.881  0.00  0.00     0.382 C 
ATOM     23  O   LIG d   1      -0.217  81.041 111.640  0.00  0.00    -0.241 OA
ATOM     24  O   LIG d   1      -1.750  82.402 112.319  0.00  0.00    -0.241 OA
ENDBRANCH   3  22
TORSDOF 7
ENDMDL
MODEL 7
REMARK VINA RESULT:      -5.1      1.987      4.356
REMARK  7 active torsions:
REMARK  status: ('A' for Active; 'I' for Inactive)
REMARK    1  A    between atoms: C_2  and  C_3 
REMARK    2  A    between atoms: C_3  and  O_6 
REMARK    3  A    between atoms: C_3  and  C_4 
REMARK    4  A    between atoms: C_7  and  O_6 
REMARK    5  A    between atoms: C_9  and  C_10 
REMARK    6  A    between atoms: N_15  and  C_14 
REMARK    7  A    between atoms: N_20  and  C_19 
REMARK       I    between atoms: C_22  and  N_20 
ROOT
ATOM      1  C   LIG d   1       1.754  82.357 110.868  0.00  0.00     0.161 C 
ATOM      2  C   LIG d   1       0.849  81.405 111.365  0.00  0.00     0.016 C 
ATOM      3  C   LIG d   1      -0.416  81.739 111.902  0.00  0.00     0.038 C 
ATOM      4  C   LIG d   1      -0.926  83.044 111.839  0.00  0.00     0.028 C 
ATOM      5  C   LIG d   1       0.157  84.117 111.805  0.00  0.00    -0.047 C 
ATOM      6  C   LIG d   1       1.170  83.774 110.689  0.00  0.00     0.091 C 
ENDROOT
BRANCH   1   7
ATOM      7  O   LIG d   1       2.324  81.890 109.629  0.00  0.00    -0.368 OA
BRANCH   7   8
ATOM      8  C   LIG d   1       3.392  80.917 109.745  0.00  0.00     0.119 C 
BRANCH   8   9
ATOM      9  C   LIG d   1       4.722  81.663 109.528  0.00  0.00     0.028 C 
ATOM     10  C   LIG d   1       4.600  82.791 108.490  0.00  0.00     0.006 C 
ENDBRANCH   8   9
BRANCH   8  11
ATOM     11  C   LIG d   1       3.322  79.877 108.624  0.00  0.00     0.028 C 
ATOM     12  C   LIG d   1       1.938  79.220 108.506  0.00  0.00     0.006 C 
ENDBRANCH   8  11
ENDBRANCH   7   8
ENDBRANCH   1   7
BRANCH   6  13
ATOM     13  N   LIG d   1       2.308  84.728 110.643  0.00  0.00    -0.311 N 
ATOM     14  C   LIG d   1       2.885  85.234 111.732  0.00  0.00     0.210 C 
ATOM     15  C   LIG d   1       4.029  86.215 111.460  0.00  0.00     0.109 C 
ATOM     16  O   LIG d   1       2.578  84.939 112.897  0.00  0.00    -0.276 OA
ATOM     17  H   LIG d   1       2.641  84.997 109.738  0.00  0.00     0.149 HD
ENDBRANCH   6  13
BRANCH   5  18
ATOM     18  N   LIG d   1      -0.510  85.417 111.600  0.00  0.00     0.381 N 
ATOM     19  H   LIG d   1      -0.280  86.038 112.351  0.00  0.00    -0.090 HD
ATOM     20  H   LIG d   1      -1.505  85.276 111.601  0.00  0.00    -0.090 HD
ATOM     21  H   LIG d   1      -0.224  85.814 110.733  0.00  0.00    -0.090 HD
ENDBRANCH   5  18
BRANCH   3  22
ATOM     22  C   LIG d   1      -1.167  80.768 112.546  0.00  0.00     0.382 C 
ATOM     23  O   LIG d   1      -2.186  80.292 111.989  0.00  0.00    -0.241 OA
ATOM     24  O   LIG d   1      -0.865  80.395 113.695  0.00  0.00    -0.241 OA
ENDBRANCH   3  22
TORSDOF 7
ENDMDL
MODEL 8
REMARK VINA RESULT:      -4.5      2.097      5.209
REMARK  7 active torsions:
REMARK  status: ('A' for Active; 'I' for Inactive)
REMARK    1  A    between atoms: C_2  and  C_3 
REMARK    2  A    between atoms: C_3  and  O_6 
REMARK    3  A    between atoms: C_3  and  C_4 
REMARK    4  A    between atoms: C_7  and  O_6 
REMARK    5  A    between atoms: C_9  and  C_10 
REMARK    6  A    between atoms: N_15  and  C_14 
REMARK    7  A    between atoms: N_20  and  C_19 
REMARK       I    between atoms: C_22  and  N_20 
ROOT
ATOM      1  C   LIG d   1       1.183  81.850 111.450  0.00  0.00     0.161 C 
ATOM      2  C   LIG d   1       1.687  82.790 112.364  0.00  0.00     0.016 C 
ATOM      3  C   LIG d   1       2.548  83.850 111.996  0.00  0.00     0.038 C 
ATOM      4  C   LIG d   1       2.844  84.132 110.654  0.00  0.00     0.028 C 
ATOM      5  C   LIG d   1       2.766  82.909 109.747  0.00  0.00    -0.047 C 
ATOM      6  C   LIG d   1       1.406  82.207 109.966  0.00  0.00     0.091 C 
ENDROOT
BRANCH   1   7
ATOM      7  O   LIG d   1      -0.217  81.622 111.706  0.00  0.00    -0.368 OA
BRANCH   7   8
ATOM      8  C   LIG d   1      -0.552  80.364 112.341  0.00  0.00     0.119 C 
BRANCH   8   9
ATOM      9  C   LIG d   1      -1.439  79.572 111.361  0.00  0.00     0.028 C 
ATOM     10  C   LIG d   1      -1.872  78.210 111.930  0.00  0.00     0.006 C 
ENDBRANCH   8   9
BRANCH   8  11
ATOM     11  C   LIG d   1      -1.417  80.581 113.586  0.00  0.00     0.028 C 
ATOM     12  C   LIG d   1      -2.704  81.367 113.288  0.00  0.00     0.006 C 
ENDBRANCH   8  11
ENDBRANCH   7   8
ENDBRANCH   1   7
BRANCH   6  13
ATOM     13  N   LIG d   1       1.282  80.954 109.178  0.00  0.00    -0.311 N 
ATOM     14  C   LIG d   1       2.306  80.139 108.930  0.00  0.00     0.210 C 
ATOM     15  C   LIG d   1       1.964  78.910 108.081  0.00  0.00     0.109 C 
ATOM     16  O   LIG d   1       3.458  80.300 109.360  0.00  0.00    -0.276 OA
ATOM     17  H   LIG d   1       0.375  80.730 108.817  0.00  0.00     0.149 HD
ENDBRANCH   6  13
BRANCH   5  18
ATOM     18  N   LIG d   1       2.962  83.370 108.359  0.00  0.00     0.381 N 
ATOM     19  H   LIG d   1       2.883  84.367 108.320  0.00  0.00    -0.090 HD
ATOM     20  H   LIG d   1       2.242  82.974 107.780  0.00  0.00    -0.090 HD
ATOM     21  H   LIG d   1       3.858  83.087 108.029  0.00  0.00    -0.090 HD
ENDBRANCH   5  18
BRANCH   3  22
ATOM     22  C   LIG d   1       3.154  84.616 112.980  0.00  0.00     0.382 C 
ATOM     23  O   LIG d   1       3.587  85.761 112.705  0.00  0.00    -0.241 OA
ATOM     24  O   LIG d   1       3.313  84.159 114.128  0.00  0.00    -0.241 OA
ENDBRANCH   3  22
TORSDOF 7
ENDMDL
MODEL 9
REMARK VINA RESULT:      -4.2     22.176     24.417
REMARK  7 active torsions:
REMARK  status: ('A' for Active; 'I' for Inactive)
REMARK    1  A    between atoms: C_2  and  C_3 
REMARK    2  A    between atoms: C_3  and  O_6 
REMARK    3  A    between atoms: C_3  and  C_4 
REMARK    4  A    between atoms: C_7  and  O_6 
REMARK    5  A    between atoms: C_9  and  C_10 
REMARK    6  A    between atoms: N_15  and  C_14 
REMARK    7  A    between atoms: N_20  and  C_19 
REMARK       I    between atoms: C_22  and  N_20 
ROOT
ATOM      1  C   LIG d   1       8.152  60.330 109.917  0.00  0.00     0.161 C 
ATOM      2  C   LIG d   1       8.155  61.731 109.821  0.00  0.00     0.016 C 
ATOM      3  C   LIG d   1       9.195  62.544 110.327  0.00  0.00     0.038 C 
ATOM      4  C   LIG d   1      10.383  61.997 110.834  0.00  0.00     0.028 C 
ATOM      5  C   LIG d   1      10.207  60.596 111.411  0.00  0.00    -0.047 C 
ATOM      6  C   LIG d   1       9.491  59.709 110.367  0.00  0.00     0.091 C 
ENDROOT
BRANCH   1   7
ATOM      7  O   LIG d   1       7.729  59.755 108.665  0.00  0.00    -0.368 OA
BRANCH   7   8
ATOM      8  C   LIG d   1       8.780  59.464 107.710  0.00  0.00     0.119 C 
BRANCH   8   9
ATOM      9  C   LIG d   1       8.571  60.388 106.496  0.00  0.00     0.028 C 
ATOM     10  C   LIG d   1       9.638  61.492 106.408  0.00  0.00     0.006 C 
ENDBRANCH   8   9
BRANCH   8  11
ATOM     11  C   LIG d   1       8.655  58.039 107.162  0.00  0.00     0.028 C 
ATOM     12  C   LIG d   1       7.531  57.237 107.836  0.00  0.00     0.006 C 
ENDBRANCH   8  11
ENDBRANCH   7   8
ENDBRANCH   1   7
BRANCH   6  13
ATOM     13  N   LIG d   1       9.204  58.345 110.883  0.00  0.00    -0.311 N 
ATOM     14  C   LIG d   1       9.982  57.292 110.642  0.00  0.00     0.210 C 
ATOM     15  C   LIG d   1       9.493  55.974 111.251  0.00  0.00     0.109 C 
ATOM     16  O   LIG d   1      11.047  57.330 110.008  0.00  0.00    -0.276 OA
ATOM     17  H   LIG d   1       8.375  58.231 111.433  0.00  0.00     0.149 HD
ENDBRANCH   6  13
BRANCH   5  18
ATOM     18  N   LIG d   1      11.545  60.093 111.776  0.00  0.00     0.381 N 
ATOM     19  H   LIG d   1      12.234  60.792 111.582  0.00  0.00    -0.090 HD
ATOM     20  H   LIG d   1      11.751  59.284 111.219  0.00  0.00    -0.090 HD
ATOM     21  H   LIG d   1      11.567  59.854 112.743  0.00  0.00    -0.090 HD
ENDBRANCH   5  18
BRANCH   3  22
ATOM     22  C   LIG d   1       9.034  63.920 110.366  0.00  0.00     0.382 C 
ATOM     23  O   LIG d   1       7.944  64.414 110.743  0.00  0.00    -0.241 OA
ATOM     24  O   LIG d   1       9.951  64.674 109.988  0.00  0.00    -0.241 OA
ENDBRANCH   3  22
TORSDOF 7
ENDMDL
