MODEL 1
REMARK VINA RESULT:      -5.6      0.000      0.000
REMARK  7 active torsions:
REMARK  status: ('A' for Active; 'I' for Inactive)
REMARK    1  A    between atoms: C_2  and  C_3 
REMARK    2  A    between atoms: C_3  and  O_6 
REMARK    3  A    between atoms: C_3  and  C_4 
REMARK    4  A    between atoms: C_7  and  O_6 
REMARK    5  A    between atoms: C_9  and  C_10 
REMARK    6  A    between atoms: N_15  and  C_14 
REMARK    7  A    between atoms: N_20  and  C_19 
REMARK       I    between atoms: C_22  and  N_20 
ROOT
ATOM      1  C   LIG d   1      -6.663  75.581 116.244  0.00  0.00     0.161 C 
ATOM      2  C   LIG d   1      -5.448  74.951 115.928  0.00  0.00     0.016 C 
ATOM      3  C   LIG d   1      -4.297  75.027 116.744  0.00  0.00     0.038 C 
ATOM      4  C   LIG d   1      -4.327  75.617 118.016  0.00  0.00     0.028 C 
ATOM      5  C   LIG d   1      -5.390  76.702 118.156  0.00  0.00    -0.047 C 
ATOM      6  C   LIG d   1      -6.749  76.137 117.681  0.00  0.00     0.091 C 
ENDROOT
BRANCH   1   7
ATOM      7  O   LIG d   1      -7.761  74.683 115.989  0.00  0.00    -0.368 OA
BRANCH   7   8
ATOM      8  C   LIG d   1      -7.827  73.503 116.827  0.00  0.00     0.119 C 
BRANCH   8   9
ATOM      9  C   LIG d   1      -7.790  72.273 115.899  0.00  0.00     0.028 C 
ATOM     10  C   LIG d   1      -8.699  71.136 116.396  0.00  0.00     0.006 C 
ENDBRANCH   8   9
BRANCH   8  11
ATOM     11  C   LIG d   1      -9.168  73.416 117.562  0.00  0.00     0.028 C 
ATOM     12  C   LIG d   1     -10.190  74.449 117.061  0.00  0.00     0.006 C 
ENDBRANCH   8  11
ENDBRANCH   7   8
ENDBRANCH   1   7
BRANCH   6  13
ATOM     13  N   LIG d   1      -7.827  77.159 117.705  0.00  0.00    -0.311 N 
ATOM     14  C   LIG d   1      -8.643  77.340 118.743  0.00  0.00     0.210 C 
ATOM     15  C   LIG d   1      -9.699  78.433 118.552  0.00  0.00     0.109 C 
ATOM     16  O   LIG d   1      -8.572  76.720 119.815  0.00  0.00    -0.276 OA
ATOM     17  H   LIG d   1      -7.936  77.727 116.888  0.00  0.00     0.149 HD
ENDBRANCH   6  13
BRANCH   5  18
ATOM     18  N   LIG d   1      -5.404  77.134 119.566  0.00  0.00     0.381 N 
ATOM     19  H   LIG d   1      -5.523  76.339 120.162  0.00  0.00    -0.090 HD
ATOM     20  H   LIG d   1      -6.182  77.754 119.708  0.00  0.00    -0.090 HD
ATOM     21  H   LIG d   1      -4.553  77.601 119.788  0.00  0.00    -0.090 HD
ENDBRANCH   5  18
BRANCH   3  22
ATOM     22  C   LIG d   1      -3.086  74.543 116.272  0.00  0.00     0.382 C 
ATOM     23  O   LIG d   1      -2.358  73.843 117.016  0.00  0.00    -0.241 OA
ATOM     24  O   LIG d   1      -2.693  74.834 115.126  0.00  0.00    -0.241 OA
ENDBRANCH   3  22
TORSDOF 7
ENDMDL
MODEL 2
REMARK VINA RESULT:      -5.3      2.070      5.205
REMARK  7 active torsions:
REMARK  status: ('A' for Active; 'I' for Inactive)
REMARK    1  A    between atoms: C_2  and  C_3 
REMARK    2  A    between atoms: C_3  and  O_6 
REMARK    3  A    between atoms: C_3  and  C_4 
REMARK    4  A    between atoms: C_7  and  O_6 
REMARK    5  A    between atoms: C_9  and  C_10 
REMARK    6  A    between atoms: N_15  and  C_14 
REMARK    7  A    between atoms: N_20  and  C_19 
REMARK       I    between atoms: C_22  and  N_20 
ROOT
ATOM      1  C   LIG d   1      -7.573  76.691 117.727  0.00  0.00     0.161 C 
ATOM      2  C   LIG d   1      -8.741  77.354 118.141  0.00  0.00     0.016 C 
ATOM      3  C   LIG d   1      -8.814  78.752 118.335  0.00  0.00     0.038 C 
ATOM      4  C   LIG d   1      -7.759  79.606 117.981  0.00  0.00     0.028 C 
ATOM      5  C   LIG d   1      -6.391  78.935 118.037  0.00  0.00    -0.047 C 
ATOM      6  C   LIG d   1      -6.445  77.618 117.229  0.00  0.00     0.091 C 
ENDROOT
BRANCH   1   7
ATOM      7  O   LIG d   1      -7.898  75.712 116.720  0.00  0.00    -0.368 OA
BRANCH   7   8
ATOM      8  C   LIG d   1      -7.970  74.336 117.169  0.00  0.00     0.119 C 
BRANCH   8   9
ATOM      9  C   LIG d   1      -7.268  73.466 116.108  0.00  0.00     0.028 C 
ATOM     10  C   LIG d   1      -6.419  74.299 115.134  0.00  0.00     0.006 C 
ENDBRANCH   8   9
BRANCH   8  11
ATOM     11  C   LIG d   1      -9.418  73.838 117.209  0.00  0.00     0.028 C 
ATOM     12  C   LIG d   1      -9.550  72.358 116.816  0.00  0.00     0.006 C 
ENDBRANCH   8  11
ENDBRANCH   7   8
ENDBRANCH   1   7
BRANCH   6  13
ATOM     13  N   LIG d   1      -5.171  76.856 117.302  0.00  0.00    -0.311 N 
ATOM     14  C   LIG d   1      -4.186  76.988 116.416  0.00  0.00     0.210 C 
ATOM     15  C   LIG d   1      -2.968  76.093 116.665  0.00  0.00     0.109 C 
ATOM     16  O   LIG d   1      -4.192  77.784 115.465  0.00  0.00    -0.276 OA
ATOM     17  H   LIG d   1      -5.069  76.209 118.060  0.00  0.00     0.149 HD
ENDBRANCH   6  13
BRANCH   5  18
ATOM     18  N   LIG d   1      -5.402  79.895 117.513  0.00  0.00     0.381 N 
ATOM     19  H   LIG d   1      -5.084  80.491 118.251  0.00  0.00    -0.090 HD
ATOM     20  H   LIG d   1      -5.842  80.466 116.813  0.00  0.00    -0.090 HD
ATOM     21  H   LIG d   1      -4.630  79.406 117.116  0.00  0.00    -0.090 HD
ENDBRANCH   5  18
BRANCH   3  22
ATOM     22  C   LIG d   1      -9.939  79.306 118.927  0.00  0.00     0.382 C 
ATOM     23  O   LIG d   1     -10.859  78.561 119.344  0.00  0.00    -0.241 OA
ATOM     24  O   LIG d   1     -10.066  80.542 119.010  0.00  0.00    -0.241 OA
ENDBRANCH   3  22
TORSDOF 7
ENDMDL
MODEL 3
REMARK VINA RESULT:      -5.2     12.212     14.256
REMARK  7 active torsions:
REMARK  status: ('A' for Active; 'I' for Inactive)
REMARK    1  A    between atoms: C_2  and  C_3 
REMARK    2  A    between atoms: C_3  and  O_6 
REMARK    3  A    between atoms: C_3  and  C_4 
REMARK    4  A    between atoms: C_7  and  O_6 
REMARK    5  A    between atoms: C_9  and  C_10 
REMARK    6  A    between atoms: N_15  and  C_14 
REMARK    7  A    between atoms: N_20  and  C_19 
REMARK       I    between atoms: C_22  and  N_20 
ROOT
ATOM      1  C   LIG d   1     -15.166  66.056 116.235  0.00  0.00     0.161 C 
ATOM      2  C   LIG d   1     -15.514  66.330 114.902  0.00  0.00     0.016 C 
ATOM      3  C   LIG d   1     -16.211  65.418 114.076  0.00  0.00     0.038 C 
ATOM      4  C   LIG d   1     -16.743  64.221 114.578  0.00  0.00     0.028 C 
ATOM      5  C   LIG d   1     -15.981  63.677 115.782  0.00  0.00    -0.047 C 
ATOM      6  C   LIG d   1     -15.835  64.801 116.833  0.00  0.00     0.091 C 
ENDROOT
BRANCH   1   7
ATOM      7  O   LIG d   1     -15.436  67.208 117.057  0.00  0.00    -0.368 OA
BRANCH   7   8
ATOM      8  C   LIG d   1     -16.652  67.936 116.754  0.00  0.00     0.119 C 
BRANCH   8   9
ATOM      9  C   LIG d   1     -16.455  69.386 117.237  0.00  0.00     0.028 C 
ATOM     10  C   LIG d   1     -16.918  69.589 118.689  0.00  0.00     0.006 C 
ENDBRANCH   8   9
BRANCH   8  11
ATOM     11  C   LIG d   1     -17.839  67.398 117.559  0.00  0.00     0.028 C 
ATOM     12  C   LIG d   1     -18.914  66.750 116.673  0.00  0.00     0.006 C 
ENDBRANCH   8  11
ENDBRANCH   7   8
ENDBRANCH   1   7
BRANCH   6  13
ATOM     13  N   LIG d   1     -15.028  64.377 118.007  0.00  0.00    -0.311 N 
ATOM     14  C   LIG d   1     -15.471  64.438 119.261  0.00  0.00     0.210 C 
ATOM     15  C   LIG d   1     -14.471  63.971 120.324  0.00  0.00     0.109 C 
ATOM     16  O   LIG d   1     -16.608  64.805 119.593  0.00  0.00    -0.276 OA
ATOM     17  H   LIG d   1     -14.104  64.037 117.826  0.00  0.00     0.149 HD
ENDBRANCH   6  13
BRANCH   5  18
ATOM     18  N   LIG d   1     -16.722  62.506 116.286  0.00  0.00     0.381 N 
ATOM     19  H   LIG d   1     -16.928  62.628 117.258  0.00  0.00    -0.090 HD
ATOM     20  H   LIG d   1     -16.146  61.688 116.187  0.00  0.00    -0.090 HD
ATOM     21  H   LIG d   1     -17.567  62.390 115.772  0.00  0.00    -0.090 HD
ENDBRANCH   5  18
BRANCH   3  22
ATOM     22  C   LIG d   1     -16.347  65.682 112.722  0.00  0.00     0.382 C 
ATOM     23  O   LIG d   1     -16.958  64.873 111.983  0.00  0.00    -0.241 OA
ATOM     24  O   LIG d   1     -15.827  66.698 112.221  0.00  0.00    -0.241 OA
ENDBRANCH   3  22
TORSDOF 7
ENDMDL
MODEL 4
REMARK VINA RESULT:      -5.1      2.220      5.097
REMARK  7 active torsions:
REMARK  status: ('A' for Active; 'I' for Inactive)
REMARK    1  A    between atoms: C_2  and  C_3 
REMARK    2  A    between atoms: C_3  and  O_6 
REMARK    3  A    between atoms: C_3  and  C_4 
REMARK    4  A    between atoms: C_7  and  O_6 
REMARK    5  A    between atoms: C_9  and  C_10 
REMARK    6  A    between atoms: N_15  and  C_14 
REMARK    7  A    between atoms: N_20  and  C_19 
REMARK       I    between atoms: C_22  and  N_20 
ROOT
ATOM      1  C   LIG d   1      -7.784  75.702 117.775  0.00  0.00     0.161 C 
ATOM      2  C   LIG d   1      -8.438  74.461 117.699  0.00  0.00     0.016 C 
ATOM      3  C   LIG d   1      -8.105  73.462 116.756  0.00  0.00     0.038 C 
ATOM      4  C   LIG d   1      -6.986  73.578 115.918  0.00  0.00     0.028 C 
ATOM      5  C   LIG d   1      -6.604  75.022 115.613  0.00  0.00    -0.047 C 
ATOM      6  C   LIG d   1      -6.489  75.802 116.943  0.00  0.00     0.091 C 
ENDROOT
BRANCH   1   7
ATOM      7  O   LIG d   1      -7.520  76.031 119.154  0.00  0.00    -0.368 OA
BRANCH   7   8
ATOM      8  C   LIG d   1      -8.295  77.123 119.708  0.00  0.00     0.119 C 
BRANCH   8   9
ATOM      9  C   LIG d   1      -9.062  77.783 118.545  0.00  0.00     0.028 C 
ATOM     10  C   LIG d   1      -8.707  79.270 118.377  0.00  0.00     0.006 C 
ENDBRANCH   8   9
BRANCH   8  11
ATOM     11  C   LIG d   1      -7.388  78.221 120.270  0.00  0.00     0.028 C 
ATOM     12  C   LIG d   1      -6.043  77.680 120.780  0.00  0.00     0.006 C 
ENDBRANCH   8  11
ENDBRANCH   7   8
ENDBRANCH   1   7
BRANCH   6  13
ATOM     13  N   LIG d   1      -6.200  77.244 116.731  0.00  0.00    -0.311 N 
ATOM     14  C   LIG d   1      -5.108  77.849 117.193  0.00  0.00     0.210 C 
ATOM     15  C   LIG d   1      -5.015  79.346 116.880  0.00  0.00     0.109 C 
ATOM     16  O   LIG d   1      -4.190  77.282 117.805  0.00  0.00    -0.276 OA
ATOM     17  H   LIG d   1      -6.877  77.774 116.217  0.00  0.00     0.149 HD
ENDBRANCH   6  13
BRANCH   5  18
ATOM     18  N   LIG d   1      -5.345  74.998 114.845  0.00  0.00     0.381 N 
ATOM     19  H   LIG d   1      -5.498  74.563 113.957  0.00  0.00    -0.090 HD
ATOM     20  H   LIG d   1      -4.667  74.454 115.350  0.00  0.00    -0.090 HD
ATOM     21  H   LIG d   1      -5.007  75.926 114.715  0.00  0.00    -0.090 HD
ENDBRANCH   5  18
BRANCH   3  22
ATOM     22  C   LIG d   1      -8.920  72.348 116.618  0.00  0.00     0.382 C 
ATOM     23  O   LIG d   1     -10.041  72.318 117.180  0.00  0.00    -0.241 OA
ATOM     24  O   LIG d   1      -8.529  71.356 115.974  0.00  0.00    -0.241 OA
ENDBRANCH   3  22
TORSDOF 7
ENDMDL
MODEL 5
REMARK VINA RESULT:      -5.0     11.939     13.580
REMARK  7 active torsions:
REMARK  status: ('A' for Active; 'I' for Inactive)
REMARK    1  A    between atoms: C_2  and  C_3 
REMARK    2  A    between atoms: C_3  and  O_6 
REMARK    3  A    between atoms: C_3  and  C_4 
REMARK    4  A    between atoms: C_7  and  O_6 
REMARK    5  A    between atoms: C_9  and  C_10 
REMARK    6  A    between atoms: N_15  and  C_14 
REMARK    7  A    between atoms: N_20  and  C_19 
REMARK       I    between atoms: C_22  and  N_20 
ROOT
ATOM      1  C   LIG d   1     -14.724  66.684 116.843  0.00  0.00     0.161 C 
ATOM      2  C   LIG d   1     -14.909  67.193 115.547  0.00  0.00     0.016 C 
ATOM      3  C   LIG d   1     -15.675  66.538 114.556  0.00  0.00     0.038 C 
ATOM      4  C   LIG d   1     -16.437  65.396 114.842  0.00  0.00     0.028 C 
ATOM      5  C   LIG d   1     -15.879  64.568 115.995  0.00  0.00    -0.047 C 
ATOM      6  C   LIG d   1     -15.638  65.495 117.208  0.00  0.00     0.091 C 
ENDROOT
BRANCH   1   7
ATOM      7  O   LIG d   1     -14.869  67.743 117.810  0.00  0.00    -0.368 OA
BRANCH   7   8
ATOM      8  C   LIG d   1     -16.188  67.900 118.390  0.00  0.00     0.119 C 
BRANCH   8   9
ATOM      9  C   LIG d   1     -16.702  69.299 117.998  0.00  0.00     0.028 C 
ATOM     10  C   LIG d   1     -17.366  70.031 119.177  0.00  0.00     0.006 C 
ENDBRANCH   8   9
BRANCH   8  11
ATOM     11  C   LIG d   1     -16.127  67.904 119.920  0.00  0.00     0.028 C 
ATOM     12  C   LIG d   1     -14.700  67.717 120.460  0.00  0.00     0.006 C 
ENDBRANCH   8  11
ENDBRANCH   7   8
ENDBRANCH   1   7
BRANCH   6  13
ATOM     13  N   LIG d   1     -15.013  64.782 118.352  0.00  0.00    -0.311 N 
ATOM     14  C   LIG d   1     -15.711  64.252 119.355  0.00  0.00     0.210 C 
ATOM     15  C   LIG d   1     -14.870  63.577 120.443  0.00  0.00     0.109 C 
ATOM     16  O   LIG d   1     -16.949  64.248 119.431  0.00  0.00    -0.276 OA
ATOM     17  H   LIG d   1     -14.015  64.711 118.355  0.00  0.00     0.149 HD
ENDBRANCH   6  13
BRANCH   5  18
ATOM     18  N   LIG d   1     -16.842  63.487 116.275  0.00  0.00     0.381 N 
ATOM     19  H   LIG d   1     -16.362  62.611 116.333  0.00  0.00    -0.090 HD
ATOM     20  H   LIG d   1     -17.502  63.435 115.519  0.00  0.00    -0.090 HD
ATOM     21  H   LIG d   1     -17.320  63.669 117.130  0.00  0.00    -0.090 HD
ENDBRANCH   5  18
BRANCH   3  22
ATOM     22  C   LIG d   1     -15.652  67.004 113.250  0.00  0.00     0.382 C 
ATOM     23  O   LIG d   1     -15.930  66.230 112.303  0.00  0.00    -0.241 OA
ATOM     24  O   LIG d   1     -15.313  68.177 113.004  0.00  0.00    -0.241 OA
ENDBRANCH   3  22
TORSDOF 7
ENDMDL
MODEL 6
REMARK VINA RESULT:      -5.0     16.961     19.324
REMARK  7 active torsions:
REMARK  status: ('A' for Active; 'I' for Inactive)
REMARK    1  A    between atoms: C_2  and  C_3 
REMARK    2  A    between atoms: C_3  and  O_6 
REMARK    3  A    between atoms: C_3  and  C_4 
REMARK    4  A    between atoms: C_7  and  O_6 
REMARK    5  A    between atoms: C_9  and  C_10 
REMARK    6  A    between atoms: N_15  and  C_14 
REMARK    7  A    between atoms: N_20  and  C_19 
REMARK       I    between atoms: C_22  and  N_20 
ROOT
ATOM      1  C   LIG d   1     -22.850  83.974 115.759  0.00  0.00     0.161 C 
ATOM      2  C   LIG d   1     -22.434  85.285 115.475  0.00  0.00     0.016 C 
ATOM      3  C   LIG d   1     -22.616  85.904 114.217  0.00  0.00     0.038 C 
ATOM      4  C   LIG d   1     -23.369  85.303 113.197  0.00  0.00     0.028 C 
ATOM      5  C   LIG d   1     -23.373  83.780 113.265  0.00  0.00    -0.047 C 
ATOM      6  C   LIG d   1     -23.771  83.343 114.694  0.00  0.00     0.091 C 
ENDROOT
BRANCH   1   7
ATOM      7  O   LIG d   1     -23.480  83.931 117.055  0.00  0.00    -0.368 OA
BRANCH   7   8
ATOM      8  C   LIG d   1     -22.690  83.364 118.129  0.00  0.00     0.119 C 
BRANCH   8   9
ATOM      9  C   LIG d   1     -22.124  84.536 118.954  0.00  0.00     0.028 C 
ATOM     10  C   LIG d   1     -23.134  85.685 119.112  0.00  0.00     0.006 C 
ENDBRANCH   8   9
BRANCH   8  11
ATOM     11  C   LIG d   1     -21.466  82.620 117.588  0.00  0.00     0.028 C 
ATOM     12  C   LIG d   1     -20.597  82.014 118.701  0.00  0.00     0.006 C 
ENDBRANCH   8  11
ENDBRANCH   7   8
ENDBRANCH   1   7
BRANCH   6  13
ATOM     13  N   LIG d   1     -23.719  81.868 114.870  0.00  0.00    -0.311 N 
ATOM     14  C   LIG d   1     -24.665  81.171 115.498  0.00  0.00     0.210 C 
ATOM     15  C   LIG d   1     -24.406  79.664 115.587  0.00  0.00     0.109 C 
ATOM     16  O   LIG d   1     -25.709  81.654 115.961  0.00  0.00    -0.276 OA
ATOM     17  H   LIG d   1     -22.921  81.392 114.497  0.00  0.00     0.149 HD
ENDBRANCH   6  13
BRANCH   5  18
ATOM     18  N   LIG d   1     -24.304  83.290 112.231  0.00  0.00     0.381 N 
ATOM     19  H   LIG d   1     -24.656  84.061 111.699  0.00  0.00    -0.090 HD
ATOM     20  H   LIG d   1     -25.080  82.837 112.680  0.00  0.00    -0.090 HD
ATOM     21  H   LIG d   1     -23.837  82.648 111.629  0.00  0.00    -0.090 HD
ENDBRANCH   5  18
BRANCH   3  22
ATOM     22  C   LIG d   1     -22.009  87.123 113.957  0.00  0.00     0.382 C 
ATOM     23  O   LIG d   1     -20.944  87.164 113.294  0.00  0.00    -0.241 OA
ATOM     24  O   LIG d   1     -22.488  88.178 114.413  0.00  0.00    -0.241 OA
ENDBRANCH   3  22
TORSDOF 7
ENDMDL
MODEL 7
REMARK VINA RESULT:      -4.9      3.798      5.680
REMARK  7 active torsions:
REMARK  status: ('A' for Active; 'I' for Inactive)
REMARK    1  A    between atoms: C_2  and  C_3 
REMARK    2  A    between atoms: C_3  and  O_6 
REMARK    3  A    between atoms: C_3  and  C_4 
REMARK    4  A    between atoms: C_7  and  O_6 
REMARK    5  A    between atoms: C_9  and  C_10 
REMARK    6  A    between atoms: N_15  and  C_14 
REMARK    7  A    between atoms: N_20  and  C_19 
REMARK       I    between atoms: C_22  and  N_20 
ROOT
ATOM      1  C   LIG d   1      -2.146  75.796 114.970  0.00  0.00     0.161 C 
ATOM      2  C   LIG d   1      -2.029  74.862 116.012  0.00  0.00     0.016 C 
ATOM      3  C   LIG d   1      -1.156  75.028 117.112  0.00  0.00     0.038 C 
ATOM      4  C   LIG d   1      -0.446  76.219 117.321  0.00  0.00     0.028 C 
ATOM      5  C   LIG d   1      -0.148  76.981 116.035  0.00  0.00    -0.047 C 
ATOM      6  C   LIG d   1      -1.462  77.153 115.238  0.00  0.00     0.091 C 
ENDROOT
BRANCH   1   7
ATOM      7  O   LIG d   1      -3.536  75.992 114.642  0.00  0.00    -0.368 OA
BRANCH   7   8
ATOM      8  C   LIG d   1      -4.490  75.636 115.673  0.00  0.00     0.119 C 
BRANCH   8   9
ATOM      9  C   LIG d   1      -5.732  75.052 114.973  0.00  0.00     0.028 C 
ATOM     10  C   LIG d   1      -6.604  74.217 115.926  0.00  0.00     0.006 C 
ENDBRANCH   8   9
BRANCH   8  11
ATOM     11  C   LIG d   1      -4.991  76.876 116.420  0.00  0.00     0.028 C 
ATOM     12  C   LIG d   1      -4.573  76.891 117.899  0.00  0.00     0.006 C 
ENDBRANCH   8  11
ENDBRANCH   7   8
ENDBRANCH   1   7
BRANCH   6  13
ATOM     13  N   LIG d   1      -1.246  77.815 113.925  0.00  0.00    -0.311 N 
ATOM     14  C   LIG d   1      -2.056  78.751 113.433  0.00  0.00     0.210 C 
ATOM     15  C   LIG d   1      -1.662  79.288 112.054  0.00  0.00     0.109 C 
ATOM     16  O   LIG d   1      -3.046  79.210 114.023  0.00  0.00    -0.276 OA
ATOM     17  H   LIG d   1      -0.448  77.525 113.393  0.00  0.00     0.149 HD
ENDBRANCH   6  13
BRANCH   5  18
ATOM     18  N   LIG d   1       0.472  78.266 116.411  0.00  0.00     0.381 N 
ATOM     19  H   LIG d   1       1.234  78.467 115.795  0.00  0.00    -0.090 HD
ATOM     20  H   LIG d   1       0.833  78.191 117.345  0.00  0.00    -0.090 HD
ATOM     21  H   LIG d   1      -0.204  78.997 116.365  0.00  0.00    -0.090 HD
ENDBRANCH   5  18
BRANCH   3  22
ATOM     22  C   LIG d   1      -0.956  73.978 117.995  0.00  0.00     0.382 C 
ATOM     23  O   LIG d   1      -0.018  74.028 118.827  0.00  0.00    -0.241 OA
ATOM     24  O   LIG d   1      -1.675  72.962 117.942  0.00  0.00    -0.241 OA
ENDBRANCH   3  22
TORSDOF 7
ENDMDL
MODEL 8
REMARK VINA RESULT:      -4.9     12.177     15.015
REMARK  7 active torsions:
REMARK  status: ('A' for Active; 'I' for Inactive)
REMARK    1  A    between atoms: C_2  and  C_3 
REMARK    2  A    between atoms: C_3  and  O_6 
REMARK    3  A    between atoms: C_3  and  C_4 
REMARK    4  A    between atoms: C_7  and  O_6 
REMARK    5  A    between atoms: C_9  and  C_10 
REMARK    6  A    between atoms: N_15  and  C_14 
REMARK    7  A    between atoms: N_20  and  C_19 
REMARK       I    between atoms: C_22  and  N_20 
ROOT
ATOM      1  C   LIG d   1     -15.560  65.041 115.736  0.00  0.00     0.161 C 
ATOM      2  C   LIG d   1     -16.377  65.212 114.606  0.00  0.00     0.016 C 
ATOM      3  C   LIG d   1     -17.567  64.481 114.388  0.00  0.00     0.038 C 
ATOM      4  C   LIG d   1     -18.105  63.631 115.365  0.00  0.00     0.028 C 
ATOM      5  C   LIG d   1     -17.055  63.048 116.305  0.00  0.00    -0.047 C 
ATOM      6  C   LIG d   1     -16.189  64.199 116.866  0.00  0.00     0.091 C 
ENDROOT
BRANCH   1   7
ATOM      7  O   LIG d   1     -15.148  66.327 116.240  0.00  0.00    -0.368 OA
BRANCH   7   8
ATOM      8  C   LIG d   1     -16.208  67.202 116.699  0.00  0.00     0.119 C 
BRANCH   8   9
ATOM      9  C   LIG d   1     -16.028  68.558 115.989  0.00  0.00     0.028 C 
ATOM     10  C   LIG d   1     -15.120  68.457 114.752  0.00  0.00     0.006 C 
ENDBRANCH   8   9
BRANCH   8  11
ATOM     11  C   LIG d   1     -16.072  67.506 118.194  0.00  0.00     0.028 C 
ATOM     12  C   LIG d   1     -14.658  67.231 118.731  0.00  0.00     0.006 C 
ENDBRANCH   8  11
ENDBRANCH   7   8
ENDBRANCH   1   7
BRANCH   6  13
ATOM     13  N   LIG d   1     -15.083  63.707 117.729  0.00  0.00    -0.311 N 
ATOM     14  C   LIG d   1     -15.169  63.626 119.056  0.00  0.00     0.210 C 
ATOM     15  C   LIG d   1     -13.907  63.112 119.755  0.00  0.00     0.109 C 
ATOM     16  O   LIG d   1     -16.182  63.901 119.717  0.00  0.00    -0.276 OA
ATOM     17  H   LIG d   1     -14.235  63.434 117.272  0.00  0.00     0.149 HD
ENDBRANCH   6  13
BRANCH   5  18
ATOM     18  N   LIG d   1     -17.766  62.294 117.355  0.00  0.00     0.381 N 
ATOM     19  H   LIG d   1     -18.333  62.917 117.894  0.00  0.00    -0.090 HD
ATOM     20  H   LIG d   1     -17.089  61.873 117.967  0.00  0.00    -0.090 HD
ATOM     21  H   LIG d   1     -18.335  61.589 116.942  0.00  0.00    -0.090 HD
ENDBRANCH   5  18
BRANCH   3  22
ATOM     22  C   LIG d   1     -18.211  64.567 113.163  0.00  0.00     0.382 C 
ATOM     23  O   LIG d   1     -19.443  64.800 113.118  0.00  0.00    -0.241 OA
ATOM     24  O   LIG d   1     -17.585  64.371 112.104  0.00  0.00    -0.241 OA
ENDBRANCH   3  22
TORSDOF 7
ENDMDL
MODEL 9
REMARK VINA RESULT:      -4.8     12.255     14.203
REMARK  7 active torsions:
REMARK  status: ('A' for Active; 'I' for Inactive)
REMARK    1  A    between atoms: C_2  and  C_3 
REMARK    2  A    between atoms: C_3  and  O_6 
REMARK    3  A    between atoms: C_3  and  C_4 
REMARK    4  A    between atoms: C_7  and  O_6 
REMARK    5  A    between atoms: C_9  and  C_10 
REMARK    6  A    between atoms: N_15  and  C_14 
REMARK    7  A    between atoms: N_20  and  C_19 
REMARK       I    between atoms: C_22  and  N_20 
ROOT
ATOM      1  C   LIG d   1     -15.850  66.223 116.493  0.00  0.00     0.161 C 
ATOM      2  C   LIG d   1     -15.979  66.507 115.123  0.00  0.00     0.016 C 
ATOM      3  C   LIG d   1     -16.185  65.514 114.138  0.00  0.00     0.038 C 
ATOM      4  C   LIG d   1     -16.429  64.174 114.476  0.00  0.00     0.028 C 
ATOM      5  C   LIG d   1     -15.807  63.762 115.806  0.00  0.00    -0.047 C 
ATOM      6  C   LIG d   1     -16.224  64.780 116.892  0.00  0.00     0.091 C 
ENDROOT
BRANCH   1   7
ATOM      7  O   LIG d   1     -16.617  67.170 117.262  0.00  0.00    -0.368 OA
BRANCH   7   8
ATOM      8  C   LIG d   1     -15.874  68.272 117.840  0.00  0.00     0.119 C 
BRANCH   8   9
ATOM      9  C   LIG d   1     -15.724  67.990 119.347  0.00  0.00     0.028 C 
ATOM     10  C   LIG d   1     -14.362  67.365 119.694  0.00  0.00     0.006 C 
ENDBRANCH   8   9
BRANCH   8  11
ATOM     11  C   LIG d   1     -16.661  69.583 117.749  0.00  0.00     0.028 C 
ATOM     12  C   LIG d   1     -17.269  70.007 119.095  0.00  0.00     0.006 C 
ENDBRANCH   8  11
ENDBRANCH   7   8
ENDBRANCH   1   7
BRANCH   6  13
ATOM     13  N   LIG d   1     -15.591  64.499 118.207  0.00  0.00    -0.311 N 
ATOM     14  C   LIG d   1     -16.145  63.722 119.136  0.00  0.00     0.210 C 
ATOM     15  C   LIG d   1     -15.334  63.580 120.428  0.00  0.00     0.109 C 
ATOM     16  O   LIG d   1     -17.216  63.112 119.002  0.00  0.00    -0.276 OA
ATOM     17  H   LIG d   1     -14.705  64.928 118.387  0.00  0.00     0.149 HD
ENDBRANCH   6  13
BRANCH   5  18
ATOM     18  N   LIG d   1     -16.254  62.387 116.100  0.00  0.00     0.381 N 
ATOM     19  H   LIG d   1     -15.602  61.943 116.716  0.00  0.00    -0.090 HD
ATOM     20  H   LIG d   1     -16.284  61.865 115.243  0.00  0.00    -0.090 HD
ATOM     21  H   LIG d   1     -17.158  62.405 116.519  0.00  0.00    -0.090 HD
ENDBRANCH   5  18
BRANCH   3  22
ATOM     22  C   LIG d   1     -16.109  65.851 112.796  0.00  0.00     0.382 C 
ATOM     23  O   LIG d   1     -15.555  66.922 112.449  0.00  0.00    -0.241 OA
ATOM     24  O   LIG d   1     -16.626  65.119 111.930  0.00  0.00    -0.241 OA
ENDBRANCH   3  22
TORSDOF 7
ENDMDL
