MODEL 1
REMARK VINA RESULT:      -6.1      0.000      0.000
REMARK  7 active torsions:
REMARK  status: ('A' for Active; 'I' for Inactive)
REMARK    1  A    between atoms: C_2  and  C_3 
REMARK    2  A    between atoms: C_3  and  O_6 
REMARK    3  A    between atoms: C_3  and  C_4 
REMARK    4  A    between atoms: C_7  and  O_6 
REMARK    5  A    between atoms: C_9  and  C_10 
REMARK    6  A    between atoms: N_15  and  C_14 
REMARK    7  A    between atoms: N_20  and  C_19 
REMARK       I    between atoms: C_22  and  N_20 
ROOT
ATOM      1  C   LIG d   1      -0.146  83.581 112.375  0.00  0.00     0.161 C 
ATOM      2  C   LIG d   1      -1.246  82.748 112.642  0.00  0.00     0.016 C 
ATOM      3  C   LIG d   1      -1.329  81.406 112.206  0.00  0.00     0.038 C 
ATOM      4  C   LIG d   1      -0.245  80.755 111.598  0.00  0.00     0.028 C 
ATOM      5  C   LIG d   1       0.694  81.703 110.859  0.00  0.00    -0.047 C 
ATOM      6  C   LIG d   1       1.092  82.855 111.810  0.00  0.00     0.091 C 
ENDROOT
BRANCH   1   7
ATOM      7  O   LIG d   1       0.205  84.322 113.560  0.00  0.00    -0.368 OA
BRANCH   7   8
ATOM      8  C   LIG d   1      -0.060  85.746 113.523  0.00  0.00     0.119 C 
BRANCH   8   9
ATOM      9  C   LIG d   1      -1.194  86.032 114.526  0.00  0.00     0.028 C 
ATOM     10  C   LIG d   1      -0.666  86.339 115.938  0.00  0.00     0.006 C 
ENDBRANCH   8   9
BRANCH   8  11
ATOM     11  C   LIG d   1      -0.606  86.176 112.159  0.00  0.00     0.028 C 
ATOM     12  C   LIG d   1       0.327  87.151 111.424  0.00  0.00     0.006 C 
ENDBRANCH   8  11
ENDBRANCH   7   8
ENDBRANCH   1   7
BRANCH   6  13
ATOM     13  N   LIG d   1       1.943  83.873 111.140  0.00  0.00    -0.311 N 
ATOM     14  C   LIG d   1       3.023  84.412 111.704  0.00  0.00     0.210 C 
ATOM     15  C   LIG d   1       3.745  85.458 110.849  0.00  0.00     0.109 C 
ATOM     16  O   LIG d   1       3.469  84.101 112.819  0.00  0.00    -0.276 OA
ATOM     17  H   LIG d   1       1.672  84.161 110.220  0.00  0.00     0.149 HD
ENDBRANCH   6  13
BRANCH   5  18
ATOM     18  N   LIG d   1       1.849  80.912 110.393  0.00  0.00     0.381 N 
ATOM     19  H   LIG d   1       2.014  80.152 111.021  0.00  0.00    -0.090 HD
ATOM     20  H   LIG d   1       2.664  81.500 110.387  0.00  0.00    -0.090 HD
ATOM     21  H   LIG d   1       1.675  80.564 109.476  0.00  0.00    -0.090 HD
ENDBRANCH   5  18
BRANCH   3  22
ATOM     22  C   LIG d   1      -2.522  80.712 112.341  0.00  0.00     0.382 C 
ATOM     23  O   LIG d   1      -2.513  79.460 112.427  0.00  0.00    -0.241 OA
ATOM     24  O   LIG d   1      -3.610  81.319 112.333  0.00  0.00    -0.241 OA
ENDBRANCH   3  22
TORSDOF 7
ENDMDL
MODEL 2
REMARK VINA RESULT:      -5.8      2.416      4.301
REMARK  7 active torsions:
REMARK  status: ('A' for Active; 'I' for Inactive)
REMARK    1  A    between atoms: C_2  and  C_3 
REMARK    2  A    between atoms: C_3  and  O_6 
REMARK    3  A    between atoms: C_3  and  C_4 
REMARK    4  A    between atoms: C_7  and  O_6 
REMARK    5  A    between atoms: C_9  and  C_10 
REMARK    6  A    between atoms: N_15  and  C_14 
REMARK    7  A    between atoms: N_20  and  C_19 
REMARK       I    between atoms: C_22  and  N_20 
ROOT
ATOM      1  C   LIG d   1       1.795  83.587 113.098  0.00  0.00     0.161 C 
ATOM      2  C   LIG d   1       0.897  82.689 112.497  0.00  0.00     0.016 C 
ATOM      3  C   LIG d   1      -0.498  82.910 112.432  0.00  0.00     0.038 C 
ATOM      4  C   LIG d   1      -1.075  84.124 112.833  0.00  0.00     0.028 C 
ATOM      5  C   LIG d   1      -0.273  84.852 113.906  0.00  0.00    -0.047 C 
ATOM      6  C   LIG d   1       1.197  84.967 113.441  0.00  0.00     0.091 C 
ENDROOT
BRANCH   1   7
ATOM      7  O   LIG d   1       2.963  83.740 112.267  0.00  0.00    -0.368 OA
BRANCH   7   8
ATOM      8  C   LIG d   1       2.747  83.632 110.838  0.00  0.00     0.119 C 
BRANCH   8   9
ATOM      9  C   LIG d   1       3.949  82.871 110.245  0.00  0.00     0.028 C 
ATOM     10  C   LIG d   1       3.660  81.372 110.059  0.00  0.00     0.006 C 
ENDBRANCH   8   9
BRANCH   8  11
ATOM     11  C   LIG d   1       2.767  85.008 110.166  0.00  0.00     0.028 C 
ATOM     12  C   LIG d   1       1.368  85.484 109.742  0.00  0.00     0.006 C 
ENDBRANCH   8  11
ENDBRANCH   7   8
ENDBRANCH   1   7
BRANCH   6  13
ATOM     13  N   LIG d   1       2.069  85.592 114.469  0.00  0.00    -0.311 N 
ATOM     14  C   LIG d   1       2.322  86.899 114.520  0.00  0.00     0.210 C 
ATOM     15  C   LIG d   1       3.263  87.332 115.649  0.00  0.00     0.109 C 
ATOM     16  O   LIG d   1       1.830  87.745 113.758  0.00  0.00    -0.276 OA
ATOM     17  H   LIG d   1       2.485  84.983 115.147  0.00  0.00     0.149 HD
ENDBRANCH   6  13
BRANCH   5  18
ATOM     18  N   LIG d   1      -0.913  86.162 114.129  0.00  0.00     0.381 N 
ATOM     19  H   LIG d   1      -1.015  86.325 115.111  0.00  0.00    -0.090 HD
ATOM     20  H   LIG d   1      -1.828  86.151 113.715  0.00  0.00    -0.090 HD
ATOM     21  H   LIG d   1      -0.363  86.884 113.720  0.00  0.00    -0.090 HD
ENDBRANCH   5  18
BRANCH   3  22
ATOM     22  C   LIG d   1      -1.335  81.893 111.998  0.00  0.00     0.382 C 
ATOM     23  O   LIG d   1      -0.862  80.917 111.367  0.00  0.00    -0.241 OA
ATOM     24  O   LIG d   1      -2.564  81.961 112.191  0.00  0.00    -0.241 OA
ENDBRANCH   3  22
TORSDOF 7
ENDMDL
MODEL 3
REMARK VINA RESULT:      -5.8      3.299      7.031
REMARK  7 active torsions:
REMARK  status: ('A' for Active; 'I' for Inactive)
REMARK    1  A    between atoms: C_2  and  C_3 
REMARK    2  A    between atoms: C_3  and  O_6 
REMARK    3  A    between atoms: C_3  and  C_4 
REMARK    4  A    between atoms: C_7  and  O_6 
REMARK    5  A    between atoms: C_9  and  C_10 
REMARK    6  A    between atoms: N_15  and  C_14 
REMARK    7  A    between atoms: N_20  and  C_19 
REMARK       I    between atoms: C_22  and  N_20 
ROOT
ATOM      1  C   LIG d   1       2.974  86.095 112.394  0.00  0.00     0.161 C 
ATOM      2  C   LIG d   1       3.878  87.161 112.534  0.00  0.00     0.016 C 
ATOM      3  C   LIG d   1       3.948  87.976 113.688  0.00  0.00     0.038 C 
ATOM      4  C   LIG d   1       3.216  87.683 114.848  0.00  0.00     0.028 C 
ATOM      5  C   LIG d   1       1.924  86.921 114.572  0.00  0.00    -0.047 C 
ATOM      6  C   LIG d   1       2.245  85.691 113.692  0.00  0.00     0.091 C 
ENDROOT
BRANCH   1   7
ATOM      7  O   LIG d   1       3.647  84.956 111.822  0.00  0.00    -0.368 OA
BRANCH   7   8
ATOM      8  C   LIG d   1       3.374  84.691 110.424  0.00  0.00     0.119 C 
BRANCH   8   9
ATOM      9  C   LIG d   1       2.095  85.463 110.047  0.00  0.00     0.028 C 
ATOM     10  C   LIG d   1       1.075  84.583 109.305  0.00  0.00     0.006 C 
ENDBRANCH   8   9
BRANCH   8  11
ATOM     11  C   LIG d   1       3.039  83.214 110.192  0.00  0.00     0.028 C 
ATOM     12  C   LIG d   1       4.160  82.456 109.464  0.00  0.00     0.006 C 
ENDBRANCH   8  11
ENDBRANCH   7   8
ENDBRANCH   1   7
BRANCH   6  13
ATOM     13  N   LIG d   1       1.024  84.937 113.306  0.00  0.00    -0.311 N 
ATOM     14  C   LIG d   1       0.947  83.607 113.324  0.00  0.00     0.210 C 
ATOM     15  C   LIG d   1      -0.397  83.030 112.869  0.00  0.00     0.109 C 
ATOM     16  O   LIG d   1       1.854  82.852 113.705  0.00  0.00    -0.276 OA
ATOM     17  H   LIG d   1       0.230  85.472 113.014  0.00  0.00     0.149 HD
ENDBRANCH   6  13
BRANCH   5  18
ATOM     18  N   LIG d   1       1.332  86.561 115.875  0.00  0.00     0.381 N 
ATOM     19  H   LIG d   1       0.410  86.197 115.739  0.00  0.00    -0.090 HD
ATOM     20  H   LIG d   1       1.264  87.389 116.441  0.00  0.00    -0.090 HD
ATOM     21  H   LIG d   1       1.901  85.883 116.332  0.00  0.00    -0.090 HD
ENDBRANCH   5  18
BRANCH   3  22
ATOM     22  C   LIG d   1       4.728  89.122 113.673  0.00  0.00     0.382 C 
ATOM     23  O   LIG d   1       5.852  89.109 113.116  0.00  0.00    -0.241 OA
ATOM     24  O   LIG d   1       4.341  90.157 114.249  0.00  0.00    -0.241 OA
ENDBRANCH   3  22
TORSDOF 7
ENDMDL
MODEL 4
REMARK VINA RESULT:      -5.8      1.839      2.407
REMARK  7 active torsions:
REMARK  status: ('A' for Active; 'I' for Inactive)
REMARK    1  A    between atoms: C_2  and  C_3 
REMARK    2  A    between atoms: C_3  and  O_6 
REMARK    3  A    between atoms: C_3  and  C_4 
REMARK    4  A    between atoms: C_7  and  O_6 
REMARK    5  A    between atoms: C_9  and  C_10 
REMARK    6  A    between atoms: N_15  and  C_14 
REMARK    7  A    between atoms: N_20  and  C_19 
REMARK       I    between atoms: C_22  and  N_20 
ROOT
ATOM      1  C   LIG d   1       0.511  82.389 112.169  0.00  0.00     0.161 C 
ATOM      2  C   LIG d   1      -0.742  81.920 112.597  0.00  0.00     0.016 C 
ATOM      3  C   LIG d   1      -1.400  80.814 112.012  0.00  0.00     0.038 C 
ATOM      4  C   LIG d   1      -0.776  80.003 111.053  0.00  0.00     0.028 C 
ATOM      5  C   LIG d   1       0.281  80.736 110.234  0.00  0.00    -0.047 C 
ATOM      6  C   LIG d   1       1.256  81.450 111.199  0.00  0.00     0.091 C 
ENDROOT
BRANCH   1   7
ATOM      7  O   LIG d   1       1.337  82.687 113.312  0.00  0.00    -0.368 OA
BRANCH   7   8
ATOM      8  C   LIG d   1       1.407  84.081 113.702  0.00  0.00     0.119 C 
BRANCH   8   9
ATOM      9  C   LIG d   1       0.901  84.920 112.513  0.00  0.00     0.028 C 
ATOM     10  C   LIG d   1      -0.208  85.905 112.920  0.00  0.00     0.006 C 
ENDBRANCH   8   9
BRANCH   8  11
ATOM     11  C   LIG d   1       2.856  84.525 113.925  0.00  0.00     0.028 C 
ATOM     12  C   LIG d   1       3.406  85.367 112.763  0.00  0.00     0.006 C 
ENDBRANCH   8  11
ENDBRANCH   7   8
ENDBRANCH   1   7
BRANCH   6  13
ATOM     13  N   LIG d   1       2.273  82.261 110.479  0.00  0.00    -0.311 N 
ATOM     14  C   LIG d   1       3.406  81.755 109.996  0.00  0.00     0.210 C 
ATOM     15  C   LIG d   1       4.324  82.769 109.306  0.00  0.00     0.109 C 
ATOM     16  O   LIG d   1       3.724  80.557 110.046  0.00  0.00    -0.276 OA
ATOM     17  H   LIG d   1       2.081  83.237 110.367  0.00  0.00     0.149 HD
ENDBRANCH   6  13
BRANCH   5  18
ATOM     18  N   LIG d   1       0.946  79.742 109.371  0.00  0.00     0.381 N 
ATOM     19  H   LIG d   1       1.698  79.310 109.869  0.00  0.00    -0.090 HD
ATOM     20  H   LIG d   1       1.327  80.212 108.569  0.00  0.00    -0.090 HD
ATOM     21  H   LIG d   1       0.290  79.051 109.079  0.00  0.00    -0.090 HD
ENDBRANCH   5  18
BRANCH   3  22
ATOM     22  C   LIG d   1      -2.713  80.533 112.359  0.00  0.00     0.382 C 
ATOM     23  O   LIG d   1      -3.059  79.351 112.600  0.00  0.00    -0.241 OA
ATOM     24  O   LIG d   1      -3.566  81.440 112.390  0.00  0.00    -0.241 OA
ENDBRANCH   3  22
TORSDOF 7
ENDMDL
MODEL 5
REMARK VINA RESULT:      -5.8      2.600      5.546
REMARK  7 active torsions:
REMARK  status: ('A' for Active; 'I' for Inactive)
REMARK    1  A    between atoms: C_2  and  C_3 
REMARK    2  A    between atoms: C_3  and  O_6 
REMARK    3  A    between atoms: C_3  and  C_4 
REMARK    4  A    between atoms: C_7  and  O_6 
REMARK    5  A    between atoms: C_9  and  C_10 
REMARK    6  A    between atoms: N_15  and  C_14 
REMARK    7  A    between atoms: N_20  and  C_19 
REMARK       I    between atoms: C_22  and  N_20 
ROOT
ATOM      1  C   LIG d   1       2.755  84.147 112.183  0.00  0.00     0.161 C 
ATOM      2  C   LIG d   1       3.137  85.376 112.747  0.00  0.00     0.016 C 
ATOM      3  C   LIG d   1       2.741  86.629 112.223  0.00  0.00     0.038 C 
ATOM      4  C   LIG d   1       1.807  86.736 111.183  0.00  0.00     0.028 C 
ATOM      5  C   LIG d   1       1.788  85.523 110.259  0.00  0.00    -0.047 C 
ATOM      6  C   LIG d   1       1.646  84.243 111.114  0.00  0.00     0.091 C 
ENDROOT
BRANCH   1   7
ATOM      7  O   LIG d   1       2.369  83.230 113.225  0.00  0.00    -0.368 OA
BRANCH   7   8
ATOM      8  C   LIG d   1       1.743  83.819 114.392  0.00  0.00     0.119 C 
BRANCH   8   9
ATOM      9  C   LIG d   1       2.144  82.967 115.612  0.00  0.00     0.028 C 
ATOM     10  C   LIG d   1       1.339  81.660 115.705  0.00  0.00     0.006 C 
ENDBRANCH   8   9
BRANCH   8  11
ATOM     11  C   LIG d   1       0.216  83.721 114.313  0.00  0.00     0.028 C 
ATOM     12  C   LIG d   1      -0.455  85.078 114.047  0.00  0.00     0.006 C 
ENDBRANCH   8  11
ENDBRANCH   7   8
ENDBRANCH   1   7
BRANCH   6  13
ATOM     13  N   LIG d   1       1.704  83.004 110.295  0.00  0.00    -0.311 N 
ATOM     14  C   LIG d   1       0.702  82.130 110.217  0.00  0.00     0.210 C 
ATOM     15  C   LIG d   1       0.976  80.910 109.332  0.00  0.00     0.109 C 
ATOM     16  O   LIG d   1      -0.399  82.264 110.772  0.00  0.00    -0.276 OA
ATOM     17  H   LIG d   1       2.549  82.832 109.786  0.00  0.00     0.149 HD
ENDBRANCH   6  13
BRANCH   5  18
ATOM     18  N   LIG d   1       0.677  85.706 109.305  0.00  0.00     0.381 N 
ATOM     19  H   LIG d   1       0.613  86.669 109.042  0.00  0.00    -0.090 HD
ATOM     20  H   LIG d   1      -0.183  85.444 109.753  0.00  0.00    -0.090 HD
ATOM     21  H   LIG d   1       0.825  85.143 108.497  0.00  0.00    -0.090 HD
ENDBRANCH   5  18
BRANCH   3  22
ATOM     22  C   LIG d   1       3.313  87.791 112.717  0.00  0.00     0.382 C 
ATOM     23  O   LIG d   1       4.561  87.921 112.726  0.00  0.00    -0.241 OA
ATOM     24  O   LIG d   1       2.600  88.693 113.195  0.00  0.00    -0.241 OA
ENDBRANCH   3  22
TORSDOF 7
ENDMDL
MODEL 6
REMARK VINA RESULT:      -5.6      3.811      7.068
REMARK  7 active torsions:
REMARK  status: ('A' for Active; 'I' for Inactive)
REMARK    1  A    between atoms: C_2  and  C_3 
REMARK    2  A    between atoms: C_3  and  O_6 
REMARK    3  A    between atoms: C_3  and  C_4 
REMARK    4  A    between atoms: C_7  and  O_6 
REMARK    5  A    between atoms: C_9  and  C_10 
REMARK    6  A    between atoms: N_15  and  C_14 
REMARK    7  A    between atoms: N_20  and  C_19 
REMARK       I    between atoms: C_22  and  N_20 
ROOT
ATOM      1  C   LIG d   1       3.019  85.874 112.694  0.00  0.00     0.161 C 
ATOM      2  C   LIG d   1       3.771  87.053 112.560  0.00  0.00     0.016 C 
ATOM      3  C   LIG d   1       4.324  87.752 113.657  0.00  0.00     0.038 C 
ATOM      4  C   LIG d   1       4.291  87.233 114.960  0.00  0.00     0.028 C 
ATOM      5  C   LIG d   1       3.108  86.304 115.211  0.00  0.00    -0.047 C 
ATOM      6  C   LIG d   1       3.066  85.233 114.097  0.00  0.00     0.091 C 
ENDROOT
BRANCH   1   7
ATOM      7  O   LIG d   1       3.425  84.919 111.693  0.00  0.00    -0.368 OA
BRANCH   7   8
ATOM      8  C   LIG d   1       2.416  84.545 110.723  0.00  0.00     0.119 C 
BRANCH   8   9
ATOM      9  C   LIG d   1       3.124  83.778 109.590  0.00  0.00     0.028 C 
ATOM     10  C   LIG d   1       4.006  82.634 110.118  0.00  0.00     0.006 C 
ENDBRANCH   8   9
BRANCH   8  11
ATOM     11  C   LIG d   1       1.801  85.779 110.055  0.00  0.00     0.028 C 
ATOM     12  C   LIG d   1       0.268  85.703 109.961  0.00  0.00     0.006 C 
ENDBRANCH   8  11
ENDBRANCH   7   8
ENDBRANCH   1   7
BRANCH   6  13
ATOM     13  N   LIG d   1       1.890  84.333 114.220  0.00  0.00    -0.311 N 
ATOM     14  C   LIG d   1       1.907  83.194 114.910  0.00  0.00     0.210 C 
ATOM     15  C   LIG d   1       0.593  82.407 114.892  0.00  0.00     0.109 C 
ATOM     16  O   LIG d   1       2.876  82.777 115.563  0.00  0.00    -0.276 OA
ATOM     17  H   LIG d   1       1.052  84.610 113.748  0.00  0.00     0.149 HD
ENDBRANCH   6  13
BRANCH   5  18
ATOM     18  N   LIG d   1       3.273  85.728 116.560  0.00  0.00     0.381 N 
ATOM     19  H   LIG d   1       2.392  85.720 117.034  0.00  0.00    -0.090 HD
ATOM     20  H   LIG d   1       3.907  86.305 117.084  0.00  0.00    -0.090 HD
ATOM     21  H   LIG d   1       3.631  84.801 116.494  0.00  0.00    -0.090 HD
ENDBRANCH   5  18
BRANCH   3  22
ATOM     22  C   LIG d   1       4.886  89.005 113.461  0.00  0.00     0.382 C 
ATOM     23  O   LIG d   1       4.175  90.033 113.567  0.00  0.00    -0.241 OA
ATOM     24  O   LIG d   1       6.083  89.117 113.136  0.00  0.00    -0.241 OA
ENDBRANCH   3  22
TORSDOF 7
ENDMDL
MODEL 7
REMARK VINA RESULT:      -5.5      2.954      5.876
REMARK  7 active torsions:
REMARK  status: ('A' for Active; 'I' for Inactive)
REMARK    1  A    between atoms: C_2  and  C_3 
REMARK    2  A    between atoms: C_3  and  O_6 
REMARK    3  A    between atoms: C_3  and  C_4 
REMARK    4  A    between atoms: C_7  and  O_6 
REMARK    5  A    between atoms: C_9  and  C_10 
REMARK    6  A    between atoms: N_15  and  C_14 
REMARK    7  A    between atoms: N_20  and  C_19 
REMARK       I    between atoms: C_22  and  N_20 
ROOT
ATOM      1  C   LIG d   1       0.825  85.051 112.971  0.00  0.00     0.161 C 
ATOM      2  C   LIG d   1       1.324  86.363 112.952  0.00  0.00     0.016 C 
ATOM      3  C   LIG d   1       2.341  86.822 113.821  0.00  0.00     0.038 C 
ATOM      4  C   LIG d   1       3.037  85.951 114.672  0.00  0.00     0.028 C 
ATOM      5  C   LIG d   1       2.224  84.729 115.085  0.00  0.00    -0.047 C 
ATOM      6  C   LIG d   1       1.650  84.057 113.817  0.00  0.00     0.091 C 
ENDROOT
BRANCH   1   7
ATOM      7  O   LIG d   1       0.682  84.562 111.622  0.00  0.00    -0.368 OA
BRANCH   7   8
ATOM      8  C   LIG d   1       1.296  85.367 110.585  0.00  0.00     0.119 C 
BRANCH   8   9
ATOM      9  C   LIG d   1       0.221  85.641 109.515  0.00  0.00     0.028 C 
ATOM     10  C   LIG d   1      -1.145  85.986 110.131  0.00  0.00     0.006 C 
ENDBRANCH   8   9
BRANCH   8  11
ATOM     11  C   LIG d   1       2.401  84.593 109.860  0.00  0.00     0.028 C 
ATOM     12  C   LIG d   1       3.516  84.121 110.807  0.00  0.00     0.006 C 
ENDBRANCH   8  11
ENDBRANCH   7   8
ENDBRANCH   1   7
BRANCH   6  13
ATOM     13  N   LIG d   1       0.772  82.901 114.136  0.00  0.00    -0.311 N 
ATOM     14  C   LIG d   1       0.844  81.730 113.506  0.00  0.00     0.210 C 
ATOM     15  C   LIG d   1      -0.167  80.679 113.976  0.00  0.00     0.109 C 
ATOM     16  O   LIG d   1       1.671  81.451 112.624  0.00  0.00    -0.276 OA
ATOM     17  H   LIG d   1       0.092  83.031 114.860  0.00  0.00     0.149 HD
ENDBRANCH   6  13
BRANCH   5  18
ATOM     18  N   LIG d   1       3.115  83.841 115.856  0.00  0.00     0.381 N 
ATOM     19  H   LIG d   1       4.070  84.083 115.680  0.00  0.00    -0.090 HD
ATOM     20  H   LIG d   1       2.969  82.893 115.555  0.00  0.00    -0.090 HD
ATOM     21  H   LIG d   1       2.918  83.922 116.829  0.00  0.00    -0.090 HD
ENDBRANCH   5  18
BRANCH   3  22
ATOM     22  C   LIG d   1       2.642  88.175 113.873  0.00  0.00     0.382 C 
ATOM     23  O   LIG d   1       3.397  88.682 113.008  0.00  0.00    -0.241 OA
ATOM     24  O   LIG d   1       2.205  88.885 114.798  0.00  0.00    -0.241 OA
ENDBRANCH   3  22
TORSDOF 7
ENDMDL
MODEL 8
REMARK VINA RESULT:      -5.5      2.858      5.281
REMARK  7 active torsions:
REMARK  status: ('A' for Active; 'I' for Inactive)
REMARK    1  A    between atoms: C_2  and  C_3 
REMARK    2  A    between atoms: C_3  and  O_6 
REMARK    3  A    between atoms: C_3  and  C_4 
REMARK    4  A    between atoms: C_7  and  O_6 
REMARK    5  A    between atoms: C_9  and  C_10 
REMARK    6  A    between atoms: N_15  and  C_14 
REMARK    7  A    between atoms: N_20  and  C_19 
REMARK       I    between atoms: C_22  and  N_20 
ROOT
ATOM      1  C   LIG d   1       0.344  82.784 112.148  0.00  0.00     0.161 C 
ATOM      2  C   LIG d   1      -0.126  83.793 111.291  0.00  0.00     0.016 C 
ATOM      3  C   LIG d   1      -0.436  85.102 111.727  0.00  0.00     0.038 C 
ATOM      4  C   LIG d   1      -0.150  85.536 113.030  0.00  0.00     0.028 C 
ATOM      5  C   LIG d   1      -0.146  84.410 114.057  0.00  0.00    -0.047 C 
ATOM      6  C   LIG d   1       0.767  83.271 113.550  0.00  0.00     0.091 C 
ENDROOT
BRANCH   1   7
ATOM      7  O   LIG d   1       1.427  82.072 111.517  0.00  0.00    -0.368 OA
BRANCH   7   8
ATOM      8  C   LIG d   1       2.075  82.748 110.412  0.00  0.00     0.119 C 
BRANCH   8   9
ATOM      9  C   LIG d   1       2.522  81.669 109.407  0.00  0.00     0.028 C 
ATOM     10  C   LIG d   1       3.979  81.228 109.628  0.00  0.00     0.006 C 
ENDBRANCH   8   9
BRANCH   8  11
ATOM     11  C   LIG d   1       3.364  83.442 110.862  0.00  0.00     0.028 C 
ATOM     12  C   LIG d   1       3.329  84.963 110.645  0.00  0.00     0.006 C 
ENDBRANCH   8  11
ENDBRANCH   7   8
ENDBRANCH   1   7
BRANCH   6  13
ATOM     13  N   LIG d   1       0.761  82.093 114.456  0.00  0.00    -0.311 N 
ATOM     14  C   LIG d   1       1.719  81.850 115.349  0.00  0.00     0.210 C 
ATOM     15  C   LIG d   1       1.530  80.570 116.169  0.00  0.00     0.109 C 
ATOM     16  O   LIG d   1       2.691  82.590 115.562  0.00  0.00    -0.276 OA
ATOM     17  H   LIG d   1      -0.007  81.456 114.372  0.00  0.00     0.149 HD
ENDBRANCH   6  13
BRANCH   5  18
ATOM     18  N   LIG d   1       0.301  84.980 115.342  0.00  0.00     0.381 N 
ATOM     19  H   LIG d   1       0.253  85.978 115.305  0.00  0.00    -0.090 HD
ATOM     20  H   LIG d   1       1.257  84.715 115.500  0.00  0.00    -0.090 HD
ATOM     21  H   LIG d   1      -0.272  84.640 116.084  0.00  0.00    -0.090 HD
ENDBRANCH   5  18
BRANCH   3  22
ATOM     22  C   LIG d   1      -1.075  85.980 110.865  0.00  0.00     0.382 C 
ATOM     23  O   LIG d   1      -1.901  86.810 111.315  0.00  0.00    -0.241 OA
ATOM     24  O   LIG d   1      -0.869  85.923 109.638  0.00  0.00    -0.241 OA
ENDBRANCH   3  22
TORSDOF 7
ENDMDL
MODEL 9
REMARK VINA RESULT:      -5.4      2.477      5.970
REMARK  7 active torsions:
REMARK  status: ('A' for Active; 'I' for Inactive)
REMARK    1  A    between atoms: C_2  and  C_3 
REMARK    2  A    between atoms: C_3  and  O_6 
REMARK    3  A    between atoms: C_3  and  C_4 
REMARK    4  A    between atoms: C_7  and  O_6 
REMARK    5  A    between atoms: C_9  and  C_10 
REMARK    6  A    between atoms: N_15  and  C_14 
REMARK    7  A    between atoms: N_20  and  C_19 
REMARK       I    between atoms: C_22  and  N_20 
ROOT
ATOM      1  C   LIG d   1       1.152  86.082 113.936  0.00  0.00     0.161 C 
ATOM      2  C   LIG d   1       2.142  87.077 113.978  0.00  0.00     0.016 C 
ATOM      3  C   LIG d   1       3.028  87.340 112.908  0.00  0.00     0.038 C 
ATOM      4  C   LIG d   1       2.884  86.721 111.658  0.00  0.00     0.028 C 
ATOM      5  C   LIG d   1       2.221  85.350 111.733  0.00  0.00    -0.047 C 
ATOM      6  C   LIG d   1       0.908  85.472 112.539  0.00  0.00     0.091 C 
ENDROOT
BRANCH   1   7
ATOM      7  O   LIG d   1      -0.080  86.594 114.482  0.00  0.00    -0.368 OA
BRANCH   7   8
ATOM      8  C   LIG d   1      -0.213  86.531 115.923  0.00  0.00     0.119 C 
BRANCH   8   9
ATOM      9  C   LIG d   1       0.105  85.086 116.355  0.00  0.00     0.028 C 
ATOM     10  C   LIG d   1       1.021  85.031 117.589  0.00  0.00     0.006 C 
ENDBRANCH   8   9
BRANCH   8  11
ATOM     11  C   LIG d   1      -1.660  86.776 116.360  0.00  0.00     0.028 C 
ATOM     12  C   LIG d   1      -1.786  87.898 117.402  0.00  0.00     0.006 C 
ENDBRANCH   8  11
ENDBRANCH   7   8
ENDBRANCH   1   7
BRANCH   6  13
ATOM     13  N   LIG d   1       0.237  84.160 112.733  0.00  0.00    -0.311 N 
ATOM     14  C   LIG d   1      -0.742  83.714 111.947  0.00  0.00     0.210 C 
ATOM     15  C   LIG d   1      -1.308  82.344 112.334  0.00  0.00     0.109 C 
ATOM     16  O   LIG d   1      -1.173  84.308 110.948  0.00  0.00    -0.276 OA
ATOM     17  H   LIG d   1       0.547  83.598 113.502  0.00  0.00     0.149 HD
ENDBRANCH   6  13
BRANCH   5  18
ATOM     18  N   LIG d   1       2.009  84.881 110.350  0.00  0.00     0.381 N 
ATOM     19  H   LIG d   1       2.589  85.402 109.723  0.00  0.00    -0.090 HD
ATOM     20  H   LIG d   1       1.049  85.039 110.097  0.00  0.00    -0.090 HD
ATOM     21  H   LIG d   1       2.222  83.911 110.283  0.00  0.00    -0.090 HD
ENDBRANCH   5  18
BRANCH   3  22
ATOM     22  C   LIG d   1       4.098  88.202 113.097  0.00  0.00     0.382 C 
ATOM     23  O   LIG d   1       3.895  89.374 113.499  0.00  0.00    -0.241 OA
ATOM     24  O   LIG d   1       5.258  87.838 112.829  0.00  0.00    -0.241 OA
ENDBRANCH   3  22
TORSDOF 7
ENDMDL
