MODEL 1
REMARK VINA RESULT:      -6.6      0.000      0.000
REMARK  7 active torsions:
REMARK  status: ('A' for Active; 'I' for Inactive)
REMARK    1  A    between atoms: C_2  and  C_3 
REMARK    2  A    between atoms: C_3  and  O_6 
REMARK    3  A    between atoms: C_3  and  C_4 
REMARK    4  A    between atoms: C_7  and  O_6 
REMARK    5  A    between atoms: C_9  and  C_10 
REMARK    6  A    between atoms: N_15  and  C_14 
REMARK    7  A    between atoms: N_20  and  C_19 
REMARK       I    between atoms: C_22  and  N_20 
ROOT
ATOM      1  C   LIG d   1       1.085  84.090 109.566  0.00  0.00     0.161 C 
ATOM      2  C   LIG d   1       0.861  85.400 110.021  0.00  0.00     0.016 C 
ATOM      3  C   LIG d   1       0.062  85.707 111.146  0.00  0.00     0.038 C 
ATOM      4  C   LIG d   1      -0.448  84.708 111.989  0.00  0.00     0.028 C 
ATOM      5  C   LIG d   1      -0.668  83.374 111.282  0.00  0.00    -0.047 C 
ATOM      6  C   LIG d   1       0.628  82.981 110.537  0.00  0.00     0.091 C 
ENDROOT
BRANCH   1   7
ATOM      7  O   LIG d   1       2.476  83.921 109.231  0.00  0.00    -0.368 OA
BRANCH   7   8
ATOM      8  C   LIG d   1       3.390  83.795 110.348  0.00  0.00     0.119 C 
BRANCH   8   9
ATOM      9  C   LIG d   1       4.064  85.165 110.552  0.00  0.00     0.028 C 
ATOM     10  C   LIG d   1       3.972  85.654 112.007  0.00  0.00     0.006 C 
ENDBRANCH   8   9
BRANCH   8  11
ATOM     11  C   LIG d   1       4.532  82.825 110.027  0.00  0.00     0.028 C 
ATOM     12  C   LIG d   1       4.451  82.261 108.600  0.00  0.00     0.006 C 
ENDBRANCH   8  11
ENDBRANCH   7   8
ENDBRANCH   1   7
BRANCH   6  13
ATOM     13  N   LIG d   1       0.473  81.730 109.750  0.00  0.00    -0.311 N 
ATOM     14  C   LIG d   1       1.192  80.631 109.970  0.00  0.00     0.210 C 
ATOM     15  C   LIG d   1       0.887  79.460 109.032  0.00  0.00     0.109 C 
ATOM     16  O   LIG d   1       2.032  80.505 110.874  0.00  0.00    -0.276 OA
ATOM     17  H   LIG d   1      -0.209  81.734 109.017  0.00  0.00     0.149 HD
ENDBRANCH   6  13
BRANCH   5  18
ATOM     18  N   LIG d   1      -1.069  82.389 112.304  0.00  0.00     0.381 N 
ATOM     19  H   LIG d   1      -2.067  82.328 112.343  0.00  0.00    -0.090 HD
ATOM     20  H   LIG d   1      -0.737  82.698 113.201  0.00  0.00    -0.090 HD
ATOM     21  H   LIG d   1      -0.682  81.497 112.088  0.00  0.00    -0.090 HD
ENDBRANCH   5  18
BRANCH   3  22
ATOM     22  C   LIG d   1      -0.268  87.027 111.416  0.00  0.00     0.382 C 
ATOM     23  O   LIG d   1      -1.446  87.425 111.249  0.00  0.00    -0.241 OA
ATOM     24  O   LIG d   1       0.607  87.835 111.781  0.00  0.00    -0.241 OA
ENDBRANCH   3  22
TORSDOF 7
ENDMDL
MODEL 2
REMARK VINA RESULT:      -6.2      2.528      4.672
REMARK  7 active torsions:
REMARK  status: ('A' for Active; 'I' for Inactive)
REMARK    1  A    between atoms: C_2  and  C_3 
REMARK    2  A    between atoms: C_3  and  O_6 
REMARK    3  A    between atoms: C_3  and  C_4 
REMARK    4  A    between atoms: C_7  and  O_6 
REMARK    5  A    between atoms: C_9  and  C_10 
REMARK    6  A    between atoms: N_15  and  C_14 
REMARK    7  A    between atoms: N_20  and  C_19 
REMARK       I    between atoms: C_22  and  N_20 
ROOT
ATOM      1  C   LIG d   1       2.269  83.710 111.146  0.00  0.00     0.161 C 
ATOM      2  C   LIG d   1       1.204  82.794 111.160  0.00  0.00     0.016 C 
ATOM      3  C   LIG d   1      -0.036  83.051 111.790  0.00  0.00     0.038 C 
ATOM      4  C   LIG d   1      -0.350  84.311 112.322  0.00  0.00     0.028 C 
ATOM      5  C   LIG d   1       0.874  85.099 112.775  0.00  0.00    -0.047 C 
ATOM      6  C   LIG d   1       1.905  85.131 111.624  0.00  0.00     0.091 C 
ENDROOT
BRANCH   1   7
ATOM      7  O   LIG d   1       2.853  83.759 109.829  0.00  0.00    -0.368 OA
BRANCH   7   8
ATOM      8  C   LIG d   1       3.188  82.481 109.233  0.00  0.00     0.119 C 
BRANCH   8   9
ATOM      9  C   LIG d   1       4.715  82.452 109.029  0.00  0.00     0.028 C 
ATOM     10  C   LIG d   1       5.463  81.927 110.267  0.00  0.00     0.006 C 
ENDBRANCH   8   9
BRANCH   8  11
ATOM     11  C   LIG d   1       2.589  82.347 107.830  0.00  0.00     0.028 C 
ATOM     12  C   LIG d   1       1.799  83.593 107.398  0.00  0.00     0.006 C 
ENDBRANCH   8  11
ENDBRANCH   7   8
ENDBRANCH   1   7
BRANCH   6  13
ATOM     13  N   LIG d   1       3.168  85.811 112.013  0.00  0.00    -0.311 N 
ATOM     14  C   LIG d   1       3.401  87.105 111.797  0.00  0.00     0.210 C 
ATOM     15  C   LIG d   1       4.776  87.600 112.258  0.00  0.00     0.109 C 
ATOM     16  O   LIG d   1       2.588  87.896 111.297  0.00  0.00    -0.276 OA
ATOM     17  H   LIG d   1       3.871  85.251 112.454  0.00  0.00     0.149 HD
ENDBRANCH   6  13
BRANCH   5  18
ATOM     18  N   LIG d   1       0.415  86.442 113.178  0.00  0.00     0.381 N 
ATOM     19  H   LIG d   1       0.685  86.622 114.125  0.00  0.00    -0.090 HD
ATOM     20  H   LIG d   1      -0.588  86.472 113.125  0.00  0.00    -0.090 HD
ATOM     21  H   LIG d   1       0.808  87.131 112.576  0.00  0.00    -0.090 HD
ENDBRANCH   5  18
BRANCH   3  22
ATOM     22  C   LIG d   1      -0.962  82.029 111.927  0.00  0.00     0.382 C 
ATOM     23  O   LIG d   1      -2.111  82.278 112.366  0.00  0.00    -0.241 OA
ATOM     24  O   LIG d   1      -0.650  80.853 111.660  0.00  0.00    -0.241 OA
ENDBRANCH   3  22
TORSDOF 7
ENDMDL
MODEL 3
REMARK VINA RESULT:      -6.2      1.345      2.037
REMARK  7 active torsions:
REMARK  status: ('A' for Active; 'I' for Inactive)
REMARK    1  A    between atoms: C_2  and  C_3 
REMARK    2  A    between atoms: C_3  and  O_6 
REMARK    3  A    between atoms: C_3  and  C_4 
REMARK    4  A    between atoms: C_7  and  O_6 
REMARK    5  A    between atoms: C_9  and  C_10 
REMARK    6  A    between atoms: N_15  and  C_14 
REMARK    7  A    between atoms: N_20  and  C_19 
REMARK       I    between atoms: C_22  and  N_20 
ROOT
ATOM      1  C   LIG d   1       1.519  83.616 110.528  0.00  0.00     0.161 C 
ATOM      2  C   LIG d   1       1.492  84.865 111.171  0.00  0.00     0.016 C 
ATOM      3  C   LIG d   1       0.488  85.244 112.092  0.00  0.00     0.038 C 
ATOM      4  C   LIG d   1      -0.480  84.337 112.548  0.00  0.00     0.028 C 
ATOM      5  C   LIG d   1      -0.791  83.229 111.549  0.00  0.00    -0.047 C 
ATOM      6  C   LIG d   1       0.534  82.574 111.097  0.00  0.00     0.091 C 
ENDROOT
BRANCH   1   7
ATOM      7  O   LIG d   1       2.862  83.093 110.534  0.00  0.00    -0.368 OA
BRANCH   7   8
ATOM      8  C   LIG d   1       3.675  83.410 109.377  0.00  0.00     0.119 C 
BRANCH   8   9
ATOM      9  C   LIG d   1       2.925  82.899 108.131  0.00  0.00     0.028 C 
ATOM     10  C   LIG d   1       2.987  81.369 107.995  0.00  0.00     0.006 C 
ENDBRANCH   8   9
BRANCH   8  11
ATOM     11  C   LIG d   1       4.998  82.639 109.398  0.00  0.00     0.028 C 
ATOM     12  C   LIG d   1       5.275  81.968 110.753  0.00  0.00     0.006 C 
ENDBRANCH   8  11
ENDBRANCH   7   8
ENDBRANCH   1   7
BRANCH   6  13
ATOM     13  N   LIG d   1       0.327  81.535 110.055  0.00  0.00    -0.311 N 
ATOM     14  C   LIG d   1       0.148  80.244 110.332  0.00  0.00     0.210 C 
ATOM     15  C   LIG d   1      -0.028  79.339 109.108  0.00  0.00     0.109 C 
ATOM     16  O   LIG d   1       0.086  79.768 111.475  0.00  0.00    -0.276 OA
ATOM     17  H   LIG d   1       0.331  81.838 109.101  0.00  0.00     0.149 HD
ENDBRANCH   6  13
BRANCH   5  18
ATOM     18  N   LIG d   1      -1.710  82.280 112.206  0.00  0.00     0.381 N 
ATOM     19  H   LIG d   1      -1.489  81.345 111.928  0.00  0.00    -0.090 HD
ATOM     20  H   LIG d   1      -2.650  82.482 111.913  0.00  0.00    -0.090 HD
ATOM     21  H   LIG d   1      -1.638  82.366 113.196  0.00  0.00    -0.090 HD
ENDBRANCH   5  18
BRANCH   3  22
ATOM     22  C   LIG d   1       0.422  86.556 112.535  0.00  0.00     0.382 C 
ATOM     23  O   LIG d   1       0.420  86.803 113.765  0.00  0.00    -0.241 OA
ATOM     24  O   LIG d   1       0.320  87.494 111.721  0.00  0.00    -0.241 OA
ENDBRANCH   3  22
TORSDOF 7
ENDMDL
MODEL 4
REMARK VINA RESULT:      -5.9      2.690      4.931
REMARK  7 active torsions:
REMARK  status: ('A' for Active; 'I' for Inactive)
REMARK    1  A    between atoms: C_2  and  C_3 
REMARK    2  A    between atoms: C_3  and  O_6 
REMARK    3  A    between atoms: C_3  and  C_4 
REMARK    4  A    between atoms: C_7  and  O_6 
REMARK    5  A    between atoms: C_9  and  C_10 
REMARK    6  A    between atoms: N_15  and  C_14 
REMARK    7  A    between atoms: N_20  and  C_19 
REMARK       I    between atoms: C_22  and  N_20 
ROOT
ATOM      1  C   LIG d   1       1.405  81.190 111.968  0.00  0.00     0.161 C 
ATOM      2  C   LIG d   1       2.574  81.720 111.397  0.00  0.00     0.016 C 
ATOM      3  C   LIG d   1       2.821  81.739 110.005  0.00  0.00     0.038 C 
ATOM      4  C   LIG d   1       1.842  81.363 109.074  0.00  0.00     0.028 C 
ATOM      5  C   LIG d   1       0.841  80.351 109.622  0.00  0.00    -0.047 C 
ATOM      6  C   LIG d   1       0.278  80.877 110.962  0.00  0.00     0.091 C 
ENDROOT
BRANCH   1   7
ATOM      7  O   LIG d   1       0.923  82.072 113.002  0.00  0.00    -0.368 OA
BRANCH   7   8
ATOM      8  C   LIG d   1       1.100  83.490 112.763  0.00  0.00     0.119 C 
BRANCH   8   9
ATOM      9  C   LIG d   1       1.565  84.127 114.087  0.00  0.00     0.028 C 
ATOM     10  C   LIG d   1       1.636  85.662 114.006  0.00  0.00     0.006 C 
ENDBRANCH   8   9
BRANCH   8  11
ATOM     11  C   LIG d   1      -0.232  84.170 112.432  0.00  0.00     0.028 C 
ATOM     12  C   LIG d   1      -0.373  84.509 110.940  0.00  0.00     0.006 C 
ENDBRANCH   8  11
ENDBRANCH   7   8
ENDBRANCH   1   7
BRANCH   6  13
ATOM     13  N   LIG d   1      -0.645  79.908 111.608  0.00  0.00    -0.311 N 
ATOM     14  C   LIG d   1      -1.759  80.269 112.244  0.00  0.00     0.210 C 
ATOM     15  C   LIG d   1      -2.557  79.114 112.856  0.00  0.00     0.109 C 
ATOM     16  O   LIG d   1      -2.177  81.434 112.331  0.00  0.00    -0.276 OA
ATOM     17  H   LIG d   1      -0.398  78.939 111.558  0.00  0.00     0.149 HD
ENDBRANCH   6  13
BRANCH   5  18
ATOM     18  N   LIG d   1      -0.200  80.152 108.595  0.00  0.00     0.381 N 
ATOM     19  H   LIG d   1      -0.848  80.914 108.619  0.00  0.00    -0.090 HD
ATOM     20  H   LIG d   1      -0.700  79.305 108.800  0.00  0.00    -0.090 HD
ATOM     21  H   LIG d   1       0.218  80.090 107.693  0.00  0.00    -0.090 HD
ENDBRANCH   5  18
BRANCH   3  22
ATOM     22  C   LIG d   1       4.074  82.100 109.534  0.00  0.00     0.382 C 
ATOM     23  O   LIG d   1       5.102  81.777 110.176  0.00  0.00    -0.241 OA
ATOM     24  O   LIG d   1       4.187  82.783 108.498  0.00  0.00    -0.241 OA
ENDBRANCH   3  22
TORSDOF 7
ENDMDL
MODEL 5
REMARK VINA RESULT:      -5.8      2.735      4.103
REMARK  7 active torsions:
REMARK  status: ('A' for Active; 'I' for Inactive)
REMARK    1  A    between atoms: C_2  and  C_3 
REMARK    2  A    between atoms: C_3  and  O_6 
REMARK    3  A    between atoms: C_3  and  C_4 
REMARK    4  A    between atoms: C_7  and  O_6 
REMARK    5  A    between atoms: C_9  and  C_10 
REMARK    6  A    between atoms: N_15  and  C_14 
REMARK    7  A    between atoms: N_20  and  C_19 
REMARK       I    between atoms: C_22  and  N_20 
ROOT
ATOM      1  C   LIG d   1       2.919  85.710 111.442  0.00  0.00     0.161 C 
ATOM      2  C   LIG d   1       3.837  86.757 111.632  0.00  0.00     0.016 C 
ATOM      3  C   LIG d   1       3.751  87.684 112.695  0.00  0.00     0.038 C 
ATOM      4  C   LIG d   1       2.821  87.536 113.735  0.00  0.00     0.028 C 
ATOM      5  C   LIG d   1       1.559  86.789 113.317  0.00  0.00    -0.047 C 
ATOM      6  C   LIG d   1       1.963  85.466 112.628  0.00  0.00     0.091 C 
ENDROOT
BRANCH   1   7
ATOM      7  O   LIG d   1       3.623  84.498 111.107  0.00  0.00    -0.368 OA
BRANCH   7   8
ATOM      8  C   LIG d   1       3.765  84.213 109.694  0.00  0.00     0.119 C 
BRANCH   8   9
ATOM      9  C   LIG d   1       2.361  83.904 109.140  0.00  0.00     0.028 C 
ATOM     10  C   LIG d   1       2.384  82.804 108.064  0.00  0.00     0.006 C 
ENDBRANCH   8   9
BRANCH   8  11
ATOM     11  C   LIG d   1       4.583  82.939 109.462  0.00  0.00     0.028 C 
ATOM     12  C   LIG d   1       5.089  82.309 110.769  0.00  0.00     0.006 C 
ENDBRANCH   8  11
ENDBRANCH   7   8
ENDBRANCH   1   7
BRANCH   6  13
ATOM     13  N   LIG d   1       0.790  84.714 112.113  0.00  0.00    -0.311 N 
ATOM     14  C   LIG d   1       0.422  83.521 112.577  0.00  0.00     0.210 C 
ATOM     15  C   LIG d   1      -0.805  82.910 111.892  0.00  0.00     0.109 C 
ATOM     16  O   LIG d   1       0.976  82.924 113.513  0.00  0.00    -0.276 OA
ATOM     17  H   LIG d   1       0.264  85.138 111.374  0.00  0.00     0.149 HD
ENDBRANCH   6  13
BRANCH   5  18
ATOM     18  N   LIG d   1       0.740  86.585 114.526  0.00  0.00     0.381 N 
ATOM     19  H   LIG d   1       0.070  85.861 114.364  0.00  0.00    -0.090 HD
ATOM     20  H   LIG d   1       0.243  87.435 114.730  0.00  0.00    -0.090 HD
ATOM     21  H   LIG d   1       1.323  86.341 115.296  0.00  0.00    -0.090 HD
ENDBRANCH   5  18
BRANCH   3  22
ATOM     22  C   LIG d   1       4.577  88.798 112.705  0.00  0.00     0.382 C 
ATOM     23  O   LIG d   1       5.819  88.658 112.602  0.00  0.00    -0.241 OA
ATOM     24  O   LIG d   1       4.099  89.938 112.859  0.00  0.00    -0.241 OA
ENDBRANCH   3  22
TORSDOF 7
ENDMDL
MODEL 6
REMARK VINA RESULT:      -5.8      3.471      5.179
REMARK  7 active torsions:
REMARK  status: ('A' for Active; 'I' for Inactive)
REMARK    1  A    between atoms: C_2  and  C_3 
REMARK    2  A    between atoms: C_3  and  O_6 
REMARK    3  A    between atoms: C_3  and  C_4 
REMARK    4  A    between atoms: C_7  and  O_6 
REMARK    5  A    between atoms: C_9  and  C_10 
REMARK    6  A    between atoms: N_15  and  C_14 
REMARK    7  A    between atoms: N_20  and  C_19 
REMARK       I    between atoms: C_22  and  N_20 
ROOT
ATOM      1  C   LIG d   1       3.559  85.861 112.231  0.00  0.00     0.161 C 
ATOM      2  C   LIG d   1       3.665  87.260 112.164  0.00  0.00     0.016 C 
ATOM      3  C   LIG d   1       4.484  88.021 113.029  0.00  0.00     0.038 C 
ATOM      4  C   LIG d   1       5.376  87.417 113.927  0.00  0.00     0.028 C 
ATOM      5  C   LIG d   1       4.934  86.029 114.379  0.00  0.00    -0.047 C 
ATOM      6  C   LIG d   1       4.609  85.176 113.131  0.00  0.00     0.091 C 
ENDROOT
BRANCH   1   7
ATOM      7  O   LIG d   1       3.598  85.303 110.903  0.00  0.00    -0.368 OA
BRANCH   7   8
ATOM      8  C   LIG d   1       2.443  84.524 110.505  0.00  0.00     0.119 C 
BRANCH   8   9
ATOM      9  C   LIG d   1       2.957  83.309 109.708  0.00  0.00     0.028 C 
ATOM     10  C   LIG d   1       4.474  83.367 109.462  0.00  0.00     0.006 C 
ENDBRANCH   8   9
BRANCH   8  11
ATOM     11  C   LIG d   1       1.555  85.302 109.530  0.00  0.00     0.028 C 
ATOM     12  C   LIG d   1       0.211  85.718 110.150  0.00  0.00     0.006 C 
ENDBRANCH   8  11
ENDBRANCH   7   8
ENDBRANCH   1   7
BRANCH   6  13
ATOM     13  N   LIG d   1       4.088  83.830 113.486  0.00  0.00    -0.311 N 
ATOM     14  C   LIG d   1       4.714  82.696 113.174  0.00  0.00     0.210 C 
ATOM     15  C   LIG d   1       3.994  81.418 113.616  0.00  0.00     0.109 C 
ATOM     16  O   LIG d   1       5.812  82.628 112.603  0.00  0.00    -0.276 OA
ATOM     17  H   LIG d   1       3.217  83.793 113.978  0.00  0.00     0.149 HD
ENDBRANCH   6  13
BRANCH   5  18
ATOM     18  N   LIG d   1       6.019  85.461 115.201  0.00  0.00     0.381 N 
ATOM     19  H   LIG d   1       6.158  84.500 114.961  0.00  0.00    -0.090 HD
ATOM     20  H   LIG d   1       5.753  85.509 116.168  0.00  0.00    -0.090 HD
ATOM     21  H   LIG d   1       6.861  85.973 115.055  0.00  0.00    -0.090 HD
ENDBRANCH   5  18
BRANCH   3  22
ATOM     22  C   LIG d   1       4.387  89.404 113.027  0.00  0.00     0.382 C 
ATOM     23  O   LIG d   1       5.363  90.101 112.657  0.00  0.00    -0.241 OA
ATOM     24  O   LIG d   1       3.352  89.965 113.432  0.00  0.00    -0.241 OA
ENDBRANCH   3  22
TORSDOF 7
ENDMDL
MODEL 7
REMARK VINA RESULT:      -5.8      3.041      5.369
REMARK  7 active torsions:
REMARK  status: ('A' for Active; 'I' for Inactive)
REMARK    1  A    between atoms: C_2  and  C_3 
REMARK    2  A    between atoms: C_3  and  O_6 
REMARK    3  A    between atoms: C_3  and  C_4 
REMARK    4  A    between atoms: C_7  and  O_6 
REMARK    5  A    between atoms: C_9  and  C_10 
REMARK    6  A    between atoms: N_15  and  C_14 
REMARK    7  A    between atoms: N_20  and  C_19 
REMARK       I    between atoms: C_22  and  N_20 
ROOT
ATOM      1  C   LIG d   1       0.573  80.964 111.370  0.00  0.00     0.161 C 
ATOM      2  C   LIG d   1      -0.520  80.283 111.932  0.00  0.00     0.016 C 
ATOM      3  C   LIG d   1      -1.118  79.147 111.339  0.00  0.00     0.038 C 
ATOM      4  C   LIG d   1      -0.564  78.521 110.213  0.00  0.00     0.028 C 
ATOM      5  C   LIG d   1       0.238  79.468 109.326  0.00  0.00    -0.047 C 
ATOM      6  C   LIG d   1       1.260  80.230 110.200  0.00  0.00     0.091 C 
ENDROOT
BRANCH   1   7
ATOM      7  O   LIG d   1       1.533  81.279 112.398  0.00  0.00    -0.368 OA
BRANCH   7   8
ATOM      8  C   LIG d   1       1.659  82.680 112.746  0.00  0.00     0.119 C 
BRANCH   8   9
ATOM      9  C   LIG d   1       0.781  83.481 111.764  0.00  0.00     0.028 C 
ATOM     10  C   LIG d   1      -0.162  84.459 112.485  0.00  0.00     0.006 C 
ENDBRANCH   8   9
BRANCH   8  11
ATOM     11  C   LIG d   1       3.087  83.185 112.518  0.00  0.00     0.028 C 
ATOM     12  C   LIG d   1       4.152  82.245 113.105  0.00  0.00     0.006 C 
ENDBRANCH   8  11
ENDBRANCH   7   8
ENDBRANCH   1   7
BRANCH   6  13
ATOM     13  N   LIG d   1       2.028  81.239 109.425  0.00  0.00    -0.311 N 
ATOM     14  C   LIG d   1       3.359  81.271 109.380  0.00  0.00     0.210 C 
ATOM     15  C   LIG d   1       3.951  82.406 108.538  0.00  0.00     0.109 C 
ATOM     16  O   LIG d   1       4.105  80.448 109.932  0.00  0.00    -0.276 OA
ATOM     17  H   LIG d   1       1.501  81.926 108.922  0.00  0.00     0.149 HD
ENDBRANCH   6  13
BRANCH   5  18
ATOM     18  N   LIG d   1       0.871  78.659 108.268  0.00  0.00     0.381 N 
ATOM     19  H   LIG d   1       0.673  79.058 107.372  0.00  0.00    -0.090 HD
ATOM     20  H   LIG d   1       0.484  77.732 108.292  0.00  0.00    -0.090 HD
ATOM     21  H   LIG d   1       1.856  78.620 108.412  0.00  0.00    -0.090 HD
ENDBRANCH   5  18
BRANCH   3  22
ATOM     22  C   LIG d   1      -2.306  78.650 111.851  0.00  0.00     0.382 C 
ATOM     23  O   LIG d   1      -3.049  79.389 112.542  0.00  0.00    -0.241 OA
ATOM     24  O   LIG d   1      -2.624  77.460 111.668  0.00  0.00    -0.241 OA
ENDBRANCH   3  22
TORSDOF 7
ENDMDL
MODEL 8
REMARK VINA RESULT:      -5.8      2.678      3.518
REMARK  7 active torsions:
REMARK  status: ('A' for Active; 'I' for Inactive)
REMARK    1  A    between atoms: C_2  and  C_3 
REMARK    2  A    between atoms: C_3  and  O_6 
REMARK    3  A    between atoms: C_3  and  C_4 
REMARK    4  A    between atoms: C_7  and  O_6 
REMARK    5  A    between atoms: C_9  and  C_10 
REMARK    6  A    between atoms: N_15  and  C_14 
REMARK    7  A    between atoms: N_20  and  C_19 
REMARK       I    between atoms: C_22  and  N_20 
ROOT
ATOM      1  C   LIG d   1       1.700  82.942 111.393  0.00  0.00     0.161 C 
ATOM      2  C   LIG d   1       0.736  83.846 110.917  0.00  0.00     0.016 C 
ATOM      3  C   LIG d   1       0.609  85.171 111.392  0.00  0.00     0.038 C 
ATOM      4  C   LIG d   1       1.543  85.734 112.275  0.00  0.00     0.028 C 
ATOM      5  C   LIG d   1       2.233  84.705 113.164  0.00  0.00    -0.047 C 
ATOM      6  C   LIG d   1       2.797  83.573 112.276  0.00  0.00     0.091 C 
ENDROOT
BRANCH   1   7
ATOM      7  O   LIG d   1       2.293  82.233 110.288  0.00  0.00    -0.368 OA
BRANCH   7   8
ATOM      8  C   LIG d   1       3.038  83.037 109.340  0.00  0.00     0.119 C 
BRANCH   8   9
ATOM      9  C   LIG d   1       2.555  82.654 107.928  0.00  0.00     0.028 C 
ATOM     10  C   LIG d   1       1.794  83.798 107.238  0.00  0.00     0.006 C 
ENDBRANCH   8   9
BRANCH   8  11
ATOM     11  C   LIG d   1       4.530  82.690 109.367  0.00  0.00     0.028 C 
ATOM     12  C   LIG d   1       4.791  81.205 109.662  0.00  0.00     0.006 C 
ENDBRANCH   8  11
ENDBRANCH   7   8
ENDBRANCH   1   7
BRANCH   6  13
ATOM     13  N   LIG d   1       3.415  82.482 113.074  0.00  0.00    -0.311 N 
ATOM     14  C   LIG d   1       4.731  82.309 113.183  0.00  0.00     0.210 C 
ATOM     15  C   LIG d   1       5.157  81.110 114.037  0.00  0.00     0.109 C 
ATOM     16  O   LIG d   1       5.587  83.053 112.680  0.00  0.00    -0.276 OA
ATOM     17  H   LIG d   1       2.794  81.850 113.541  0.00  0.00     0.149 HD
ENDBRANCH   6  13
BRANCH   5  18
ATOM     18  N   LIG d   1       3.275  85.409 113.935  0.00  0.00     0.381 N 
ATOM     19  H   LIG d   1       4.092  84.836 114.003  0.00  0.00    -0.090 HD
ATOM     20  H   LIG d   1       2.932  85.581 114.864  0.00  0.00    -0.090 HD
ATOM     21  H   LIG d   1       3.502  86.272 113.492  0.00  0.00    -0.090 HD
ENDBRANCH   5  18
BRANCH   3  22
ATOM     22  C   LIG d   1      -0.484  85.936 111.014  0.00  0.00     0.382 C 
ATOM     23  O   LIG d   1      -1.203  86.476 111.888  0.00  0.00    -0.241 OA
ATOM     24  O   LIG d   1      -0.785  86.055 109.811  0.00  0.00    -0.241 OA
ENDBRANCH   3  22
TORSDOF 7
ENDMDL
MODEL 9
REMARK VINA RESULT:      -5.7      2.708      4.999
REMARK  7 active torsions:
REMARK  status: ('A' for Active; 'I' for Inactive)
REMARK    1  A    between atoms: C_2  and  C_3 
REMARK    2  A    between atoms: C_3  and  O_6 
REMARK    3  A    between atoms: C_3  and  C_4 
REMARK    4  A    between atoms: C_7  and  O_6 
REMARK    5  A    between atoms: C_9  and  C_10 
REMARK    6  A    between atoms: N_15  and  C_14 
REMARK    7  A    between atoms: N_20  and  C_19 
REMARK       I    between atoms: C_22  and  N_20 
ROOT
ATOM      1  C   LIG d   1       2.629  84.216 111.325  0.00  0.00     0.161 C 
ATOM      2  C   LIG d   1       2.813  83.623 110.065  0.00  0.00     0.016 C 
ATOM      3  C   LIG d   1       2.020  83.934 108.936  0.00  0.00     0.038 C 
ATOM      4  C   LIG d   1       1.081  84.975 108.953  0.00  0.00     0.028 C 
ATOM      5  C   LIG d   1       0.513  85.256 110.340  0.00  0.00    -0.047 C 
ATOM      6  C   LIG d   1       1.683  85.435 111.335  0.00  0.00     0.091 C 
ENDROOT
BRANCH   1   7
ATOM      7  O   LIG d   1       3.907  84.569 111.890  0.00  0.00    -0.368 OA
BRANCH   7   8
ATOM      8  C   LIG d   1       4.307  83.834 113.073  0.00  0.00     0.119 C 
BRANCH   8   9
ATOM      9  C   LIG d   1       5.212  84.759 113.909  0.00  0.00     0.028 C 
ATOM     10  C   LIG d   1       4.625  85.053 115.300  0.00  0.00     0.006 C 
ENDBRANCH   8   9
BRANCH   8  11
ATOM     11  C   LIG d   1       5.181  82.630 112.711  0.00  0.00     0.028 C 
ATOM     12  C   LIG d   1       4.947  81.424 113.636  0.00  0.00     0.006 C 
ENDBRANCH   8  11
ENDBRANCH   7   8
ENDBRANCH   1   7
BRANCH   6  13
ATOM     13  N   LIG d   1       1.215  85.629 112.732  0.00  0.00    -0.311 N 
ATOM     14  C   LIG d   1       1.521  86.698 113.466  0.00  0.00     0.210 C 
ATOM     15  C   LIG d   1       0.952  86.691 114.888  0.00  0.00     0.109 C 
ATOM     16  O   LIG d   1       2.183  87.666 113.063  0.00  0.00    -0.276 OA
ATOM     17  H   LIG d   1       0.646  84.906 113.127  0.00  0.00     0.149 HD
ENDBRANCH   6  13
BRANCH   5  18
ATOM     18  N   LIG d   1      -0.346  86.451 110.237  0.00  0.00     0.381 N 
ATOM     19  H   LIG d   1      -0.803  86.616 111.111  0.00  0.00    -0.090 HD
ATOM     20  H   LIG d   1      -1.049  86.286 109.539  0.00  0.00    -0.090 HD
ATOM     21  H   LIG d   1       0.203  87.244 109.986  0.00  0.00    -0.090 HD
ENDBRANCH   5  18
BRANCH   3  22
ATOM     22  C   LIG d   1       2.136  83.170 107.784  0.00  0.00     0.382 C 
ATOM     23  O   LIG d   1       2.632  82.019 107.842  0.00  0.00    -0.241 OA
ATOM     24  O   LIG d   1       1.791  83.635 106.681  0.00  0.00    -0.241 OA
ENDBRANCH   3  22
TORSDOF 7
ENDMDL
