MODEL 1
REMARK VINA RESULT:      -5.9      0.000      0.000
REMARK  7 active torsions:
REMARK  status: ('A' for Active; 'I' for Inactive)
REMARK    1  A    between atoms: C_2  and  C_3 
REMARK    2  A    between atoms: C_3  and  O_6 
REMARK    3  A    between atoms: C_3  and  C_4 
REMARK    4  A    between atoms: C_7  and  O_6 
REMARK    5  A    between atoms: C_9  and  C_10 
REMARK    6  A    between atoms: N_15  and  C_14 
REMARK    7  A    between atoms: N_20  and  C_19 
REMARK       I    between atoms: C_22  and  N_20 
ROOT
ATOM      1  C   LIG d   1      -0.219  84.522 113.080  0.00  0.00     0.161 C 
ATOM      2  C   LIG d   1       0.514  85.605 112.567  0.00  0.00     0.016 C 
ATOM      3  C   LIG d   1       1.045  85.634 111.257  0.00  0.00     0.038 C 
ATOM      4  C   LIG d   1       0.748  84.639 110.314  0.00  0.00     0.028 C 
ATOM      5  C   LIG d   1       0.433  83.285 110.941  0.00  0.00    -0.047 C 
ATOM      6  C   LIG d   1      -0.648  83.476 112.029  0.00  0.00     0.091 C 
ENDROOT
BRANCH   1   7
ATOM      7  O   LIG d   1      -1.368  85.008 113.801  0.00  0.00    -0.368 OA
BRANCH   7   8
ATOM      8  C   LIG d   1      -1.337  84.837 115.239  0.00  0.00     0.119 C 
BRANCH   8   9
ATOM      9  C   LIG d   1      -2.432  83.817 115.608  0.00  0.00     0.028 C 
ATOM     10  C   LIG d   1      -1.922  82.729 116.567  0.00  0.00     0.006 C 
ENDBRANCH   8   9
BRANCH   8  11
ATOM     11  C   LIG d   1      -1.726  86.130 115.962  0.00  0.00     0.028 C 
ATOM     12  C   LIG d   1      -0.516  86.867 116.557  0.00  0.00     0.006 C 
ENDBRANCH   8  11
ENDBRANCH   7   8
ENDBRANCH   1   7
BRANCH   6  13
ATOM     13  N   LIG d   1      -0.954  82.213 112.751  0.00  0.00    -0.311 N 
ATOM     14  C   LIG d   1      -2.176  81.689 112.825  0.00  0.00     0.210 C 
ATOM     15  C   LIG d   1      -2.276  80.393 113.635  0.00  0.00     0.109 C 
ATOM     16  O   LIG d   1      -3.182  82.157 112.270  0.00  0.00    -0.276 OA
ATOM     17  H   LIG d   1      -0.191  81.750 113.205  0.00  0.00     0.149 HD
ENDBRANCH   6  13
BRANCH   5  18
ATOM     18  N   LIG d   1       0.008  82.380 109.856  0.00  0.00     0.381 N 
ATOM     19  H   LIG d   1      -0.163  81.466 110.226  0.00  0.00    -0.090 HD
ATOM     20  H   LIG d   1       0.748  82.313 109.180  0.00  0.00    -0.090 HD
ATOM     21  H   LIG d   1      -0.818  82.730 109.423  0.00  0.00    -0.090 HD
ENDBRANCH   5  18
BRANCH   3  22
ATOM     22  C   LIG d   1       1.917  86.648 110.891  0.00  0.00     0.382 C 
ATOM     23  O   LIG d   1       1.660  87.837 111.199  0.00  0.00    -0.241 OA
ATOM     24  O   LIG d   1       2.935  86.395 110.220  0.00  0.00    -0.241 OA
ENDBRANCH   3  22
TORSDOF 7
ENDMDL
MODEL 2
REMARK VINA RESULT:      -5.8      4.378      6.282
REMARK  7 active torsions:
REMARK  status: ('A' for Active; 'I' for Inactive)
REMARK    1  A    between atoms: C_2  and  C_3 
REMARK    2  A    between atoms: C_3  and  O_6 
REMARK    3  A    between atoms: C_3  and  C_4 
REMARK    4  A    between atoms: C_7  and  O_6 
REMARK    5  A    between atoms: C_9  and  C_10 
REMARK    6  A    between atoms: N_15  and  C_14 
REMARK    7  A    between atoms: N_20  and  C_19 
REMARK       I    between atoms: C_22  and  N_20 
ROOT
ATOM      1  C   LIG d   1       3.805  85.688 111.802  0.00  0.00     0.161 C 
ATOM      2  C   LIG d   1       4.292  87.004 111.869  0.00  0.00     0.016 C 
ATOM      3  C   LIG d   1       4.546  87.678 113.085  0.00  0.00     0.038 C 
ATOM      4  C   LIG d   1       4.472  87.025 114.325  0.00  0.00     0.028 C 
ATOM      5  C   LIG d   1       3.500  85.851 114.333  0.00  0.00    -0.047 C 
ATOM      6  C   LIG d   1       3.824  84.922 113.141  0.00  0.00     0.091 C 
ENDROOT
BRANCH   1   7
ATOM      7  O   LIG d   1       4.524  84.951 110.793  0.00  0.00    -0.368 OA
BRANCH   7   8
ATOM      8  C   LIG d   1       3.801  84.676 109.568  0.00  0.00     0.119 C 
BRANCH   8   9
ATOM      9  C   LIG d   1       2.382  85.254 109.728  0.00  0.00     0.028 C 
ATOM     10  C   LIG d   1       1.289  84.189 109.530  0.00  0.00     0.006 C 
ENDBRANCH   8   9
BRANCH   8  11
ATOM     11  C   LIG d   1       3.606  83.171 109.363  0.00  0.00     0.028 C 
ATOM     12  C   LIG d   1       4.857  82.353 109.720  0.00  0.00     0.006 C 
ENDBRANCH   8  11
ENDBRANCH   7   8
ENDBRANCH   1   7
BRANCH   6  13
ATOM     13  N   LIG d   1       2.866  83.791 113.026  0.00  0.00    -0.311 N 
ATOM     14  C   LIG d   1       3.219  82.514 113.162  0.00  0.00     0.210 C 
ATOM     15  C   LIG d   1       2.080  81.506 112.986  0.00  0.00     0.109 C 
ATOM     16  O   LIG d   1       4.362  82.123 113.442  0.00  0.00    -0.276 OA
ATOM     17  H   LIG d   1       1.911  84.021 112.830  0.00  0.00     0.149 HD
ENDBRANCH   6  13
BRANCH   5  18
ATOM     18  N   LIG d   1       3.624  85.178 115.640  0.00  0.00     0.381 N 
ATOM     19  H   LIG d   1       4.304  85.652 116.202  0.00  0.00    -0.090 HD
ATOM     20  H   LIG d   1       3.940  84.236 115.492  0.00  0.00    -0.090 HD
ATOM     21  H   LIG d   1       2.744  85.172 116.106  0.00  0.00    -0.090 HD
ENDBRANCH   5  18
BRANCH   3  22
ATOM     22  C   LIG d   1       4.840  89.033 113.071  0.00  0.00     0.382 C 
ATOM     23  O   LIG d   1       6.023  89.417 112.906  0.00  0.00    -0.241 OA
ATOM     24  O   LIG d   1       3.943  89.876 113.266  0.00  0.00    -0.241 OA
ENDBRANCH   3  22
TORSDOF 7
ENDMDL
MODEL 3
REMARK VINA RESULT:      -5.6      3.002      4.968
REMARK  7 active torsions:
REMARK  status: ('A' for Active; 'I' for Inactive)
REMARK    1  A    between atoms: C_2  and  C_3 
REMARK    2  A    between atoms: C_3  and  O_6 
REMARK    3  A    between atoms: C_3  and  C_4 
REMARK    4  A    between atoms: C_7  and  O_6 
REMARK    5  A    between atoms: C_9  and  C_10 
REMARK    6  A    between atoms: N_15  and  C_14 
REMARK    7  A    between atoms: N_20  and  C_19 
REMARK       I    between atoms: C_22  and  N_20 
ROOT
ATOM      1  C   LIG d   1       1.491  83.172 111.311  0.00  0.00     0.161 C 
ATOM      2  C   LIG d   1       2.782  82.878 110.844  0.00  0.00     0.016 C 
ATOM      3  C   LIG d   1       3.062  81.825 109.943  0.00  0.00     0.038 C 
ATOM      4  C   LIG d   1       2.042  81.085 109.327  0.00  0.00     0.028 C 
ATOM      5  C   LIG d   1       0.762  81.015 110.152  0.00  0.00    -0.047 C 
ATOM      6  C   LIG d   1       0.352  82.447 110.565  0.00  0.00     0.091 C 
ENDROOT
BRANCH   1   7
ATOM      7  O   LIG d   1       1.276  84.598 111.289  0.00  0.00    -0.368 OA
BRANCH   7   8
ATOM      8  C   LIG d   1       1.934  85.325 110.223  0.00  0.00     0.119 C 
BRANCH   8   9
ATOM      9  C   LIG d   1       2.755  86.456 110.872  0.00  0.00     0.028 C 
ATOM     10  C   LIG d   1       4.261  86.145 110.903  0.00  0.00     0.006 C 
ENDBRANCH   8   9
BRANCH   8  11
ATOM     11  C   LIG d   1       0.918  86.028 109.319  0.00  0.00     0.028 C 
ATOM     12  C   LIG d   1      -0.461  86.182 109.979  0.00  0.00     0.006 C 
ENDBRANCH   8  11
ENDBRANCH   7   8
ENDBRANCH   1   7
BRANCH   6  13
ATOM     13  N   LIG d   1      -0.845  82.463 111.446  0.00  0.00    -0.311 N 
ATOM     14  C   LIG d   1      -1.063  81.562 112.402  0.00  0.00     0.210 C 
ATOM     15  C   LIG d   1      -2.368  81.749 113.182  0.00  0.00     0.109 C 
ATOM     16  O   LIG d   1      -0.284  80.644 112.700  0.00  0.00    -0.276 OA
ATOM     17  H   LIG d   1      -1.514  83.192 111.294  0.00  0.00     0.149 HD
ENDBRANCH   6  13
BRANCH   5  18
ATOM     18  N   LIG d   1      -0.260  80.334 109.334  0.00  0.00     0.381 N 
ATOM     19  H   LIG d   1      -0.026  79.366 109.237  0.00  0.00    -0.090 HD
ATOM     20  H   LIG d   1      -0.273  80.749 108.419  0.00  0.00    -0.090 HD
ATOM     21  H   LIG d   1      -1.155  80.426 109.761  0.00  0.00    -0.090 HD
ENDBRANCH   5  18
BRANCH   3  22
ATOM     22  C   LIG d   1       4.378  81.477 109.680  0.00  0.00     0.382 C 
ATOM     23  O   LIG d   1       5.215  82.364 109.385  0.00  0.00    -0.241 OA
ATOM     24  O   LIG d   1       4.730  80.282 109.692  0.00  0.00    -0.241 OA
ENDBRANCH   3  22
TORSDOF 7
ENDMDL
MODEL 4
REMARK VINA RESULT:      -5.5      2.862      5.587
REMARK  7 active torsions:
REMARK  status: ('A' for Active; 'I' for Inactive)
REMARK    1  A    between atoms: C_2  and  C_3 
REMARK    2  A    between atoms: C_3  and  O_6 
REMARK    3  A    between atoms: C_3  and  C_4 
REMARK    4  A    between atoms: C_7  and  O_6 
REMARK    5  A    between atoms: C_9  and  C_10 
REMARK    6  A    between atoms: N_15  and  C_14 
REMARK    7  A    between atoms: N_20  and  C_19 
REMARK       I    between atoms: C_22  and  N_20 
ROOT
ATOM      1  C   LIG d   1       0.736  82.864 112.005  0.00  0.00     0.161 C 
ATOM      2  C   LIG d   1      -0.530  82.649 112.576  0.00  0.00     0.016 C 
ATOM      3  C   LIG d   1      -1.264  81.452 112.412  0.00  0.00     0.038 C 
ATOM      4  C   LIG d   1      -0.713  80.323 111.786  0.00  0.00     0.028 C 
ATOM      5  C   LIG d   1       0.361  80.665 110.759  0.00  0.00    -0.047 C 
ATOM      6  C   LIG d   1       1.400  81.604 111.413  0.00  0.00     0.091 C 
ENDROOT
BRANCH   1   7
ATOM      7  O   LIG d   1       1.608  83.484 112.971  0.00  0.00    -0.368 OA
BRANCH   7   8
ATOM      8  C   LIG d   1       1.789  84.915 112.840  0.00  0.00     0.119 C 
BRANCH   8   9
ATOM      9  C   LIG d   1       3.292  85.174 112.619  0.00  0.00     0.028 C 
ATOM     10  C   LIG d   1       3.646  85.337 111.131  0.00  0.00     0.006 C 
ENDBRANCH   8   9
BRANCH   8  11
ATOM     11  C   LIG d   1       1.440  85.642 114.142  0.00  0.00     0.028 C 
ATOM     12  C   LIG d   1       2.336  86.864 114.401  0.00  0.00     0.006 C 
ENDBRANCH   8  11
ENDBRANCH   7   8
ENDBRANCH   1   7
BRANCH   6  13
ATOM     13  N   LIG d   1       2.441  82.054 110.452  0.00  0.00    -0.311 N 
ATOM     14  C   LIG d   1       3.640  81.483 110.349  0.00  0.00     0.210 C 
ATOM     15  C   LIG d   1       4.570  82.115 109.309  0.00  0.00     0.109 C 
ATOM     16  O   LIG d   1       4.010  80.493 110.998  0.00  0.00    -0.276 OA
ATOM     17  H   LIG d   1       2.213  82.832 109.865  0.00  0.00     0.149 HD
ENDBRANCH   6  13
BRANCH   5  18
ATOM     18  N   LIG d   1       0.945  79.395 110.287  0.00  0.00     0.381 N 
ATOM     19  H   LIG d   1       1.561  79.571 109.518  0.00  0.00    -0.090 HD
ATOM     20  H   LIG d   1       0.205  78.796 109.966  0.00  0.00    -0.090 HD
ATOM     21  H   LIG d   1       1.444  78.953 111.027  0.00  0.00    -0.090 HD
ENDBRANCH   5  18
BRANCH   3  22
ATOM     22  C   LIG d   1      -2.581  81.389 112.842  0.00  0.00     0.382 C 
ATOM     23  O   LIG d   1      -3.438  82.164 112.354  0.00  0.00    -0.241 OA
ATOM     24  O   LIG d   1      -2.914  80.597 113.744  0.00  0.00    -0.241 OA
ENDBRANCH   3  22
TORSDOF 7
ENDMDL
MODEL 5
REMARK VINA RESULT:      -5.5      2.936      4.635
REMARK  7 active torsions:
REMARK  status: ('A' for Active; 'I' for Inactive)
REMARK    1  A    between atoms: C_2  and  C_3 
REMARK    2  A    between atoms: C_3  and  O_6 
REMARK    3  A    between atoms: C_3  and  C_4 
REMARK    4  A    between atoms: C_7  and  O_6 
REMARK    5  A    between atoms: C_9  and  C_10 
REMARK    6  A    between atoms: N_15  and  C_14 
REMARK    7  A    between atoms: N_20  and  C_19 
REMARK       I    between atoms: C_22  and  N_20 
ROOT
ATOM      1  C   LIG d   1       1.371  82.418 112.252  0.00  0.00     0.161 C 
ATOM      2  C   LIG d   1       2.330  81.885 111.375  0.00  0.00     0.016 C 
ATOM      3  C   LIG d   1       2.084  80.775 110.534  0.00  0.00     0.038 C 
ATOM      4  C   LIG d   1       0.805  80.214 110.403  0.00  0.00     0.028 C 
ATOM      5  C   LIG d   1      -0.066  80.396 111.641  0.00  0.00    -0.047 C 
ATOM      6  C   LIG d   1      -0.063  81.889 112.042  0.00  0.00     0.091 C 
ENDROOT
BRANCH   1   7
ATOM      7  O   LIG d   1       1.390  83.857 112.180  0.00  0.00    -0.368 OA
BRANCH   7   8
ATOM      8  C   LIG d   1       0.473  84.460 111.234  0.00  0.00     0.119 C 
BRANCH   8   9
ATOM      9  C   LIG d   1       1.317  85.108 110.119  0.00  0.00     0.028 C 
ATOM     10  C   LIG d   1       2.617  85.731 110.655  0.00  0.00     0.006 C 
ENDBRANCH   8   9
BRANCH   8  11
ATOM     11  C   LIG d   1      -0.309  85.612 111.872  0.00  0.00     0.028 C 
ATOM     12  C   LIG d   1      -0.185  85.640 113.404  0.00  0.00     0.006 C 
ENDBRANCH   8  11
ENDBRANCH   7   8
ENDBRANCH   1   7
BRANCH   6  13
ATOM     13  N   LIG d   1      -0.823  82.141 113.294  0.00  0.00    -0.311 N 
ATOM     14  C   LIG d   1      -2.143  82.318 113.326  0.00  0.00     0.210 C 
ATOM     15  C   LIG d   1      -2.725  82.585 114.718  0.00  0.00     0.109 C 
ATOM     16  O   LIG d   1      -2.891  82.246 112.340  0.00  0.00    -0.276 OA
ATOM     17  H   LIG d   1      -0.299  82.184 114.145  0.00  0.00     0.149 HD
ENDBRANCH   6  13
BRANCH   5  18
ATOM     18  N   LIG d   1      -1.413  79.888 111.317  0.00  0.00     0.381 N 
ATOM     19  H   LIG d   1      -2.094  80.600 111.487  0.00  0.00    -0.090 HD
ATOM     20  H   LIG d   1      -1.618  79.106 111.915  0.00  0.00    -0.090 HD
ATOM     21  H   LIG d   1      -1.450  79.603 110.363  0.00  0.00    -0.090 HD
ENDBRANCH   5  18
BRANCH   3  22
ATOM     22  C   LIG d   1       3.134  80.191 109.842  0.00  0.00     0.382 C 
ATOM     23  O   LIG d   1       4.009  80.911 109.305  0.00  0.00    -0.241 OA
ATOM     24  O   LIG d   1       3.193  78.953 109.711  0.00  0.00    -0.241 OA
ENDBRANCH   3  22
TORSDOF 7
ENDMDL
MODEL 6
REMARK VINA RESULT:      -5.4      2.575      4.635
REMARK  7 active torsions:
REMARK  status: ('A' for Active; 'I' for Inactive)
REMARK    1  A    between atoms: C_2  and  C_3 
REMARK    2  A    between atoms: C_3  and  O_6 
REMARK    3  A    between atoms: C_3  and  C_4 
REMARK    4  A    between atoms: C_7  and  O_6 
REMARK    5  A    between atoms: C_9  and  C_10 
REMARK    6  A    between atoms: N_15  and  C_14 
REMARK    7  A    between atoms: N_20  and  C_19 
REMARK       I    between atoms: C_22  and  N_20 
ROOT
ATOM      1  C   LIG d   1       0.840  83.150 110.559  0.00  0.00     0.161 C 
ATOM      2  C   LIG d   1       1.690  84.246 110.332  0.00  0.00     0.016 C 
ATOM      3  C   LIG d   1       1.749  85.374 111.182  0.00  0.00     0.038 C 
ATOM      4  C   LIG d   1       1.066  85.415 112.407  0.00  0.00     0.028 C 
ATOM      5  C   LIG d   1      -0.191  84.552 112.430  0.00  0.00    -0.047 C 
ATOM      6  C   LIG d   1       0.170  83.128 111.948  0.00  0.00     0.091 C 
ENDROOT
BRANCH   1   7
ATOM      7  O   LIG d   1       1.556  81.920 110.328  0.00  0.00    -0.368 OA
BRANCH   7   8
ATOM      8  C   LIG d   1       2.970  81.937 110.644  0.00  0.00     0.119 C 
BRANCH   8   9
ATOM      9  C   LIG d   1       3.691  81.078 109.588  0.00  0.00     0.028 C 
ATOM     10  C   LIG d   1       4.068  79.686 110.122  0.00  0.00     0.006 C 
ENDBRANCH   8   9
BRANCH   8  11
ATOM     11  C   LIG d   1       3.250  81.251 111.985  0.00  0.00     0.028 C 
ATOM     12  C   LIG d   1       3.752  82.228 113.060  0.00  0.00     0.006 C 
ENDBRANCH   8  11
ENDBRANCH   7   8
ENDBRANCH   1   7
BRANCH   6  13
ATOM     13  N   LIG d   1      -1.019  82.241 111.860  0.00  0.00    -0.311 N 
ATOM     14  C   LIG d   1      -1.090  81.048 112.449  0.00  0.00     0.210 C 
ATOM     15  C   LIG d   1      -2.399  80.288 112.215  0.00  0.00     0.109 C 
ATOM     16  O   LIG d   1      -0.205  80.562 113.170  0.00  0.00    -0.276 OA
ATOM     17  H   LIG d   1      -1.795  82.571 111.320  0.00  0.00     0.149 HD
ENDBRANCH   6  13
BRANCH   5  18
ATOM     18  N   LIG d   1      -0.726  84.579 113.804  0.00  0.00     0.381 N 
ATOM     19  H   LIG d   1      -1.088  83.678 114.045  0.00  0.00    -0.090 HD
ATOM     20  H   LIG d   1      -1.478  85.244 113.847  0.00  0.00    -0.090 HD
ATOM     21  H   LIG d   1      -0.008  84.838 114.444  0.00  0.00    -0.090 HD
ENDBRANCH   5  18
BRANCH   3  22
ATOM     22  C   LIG d   1       2.466  86.493 110.790  0.00  0.00     0.382 C 
ATOM     23  O   LIG d   1       1.917  87.622 110.789  0.00  0.00    -0.241 OA
ATOM     24  O   LIG d   1       3.642  86.384 110.394  0.00  0.00    -0.241 OA
ENDBRANCH   3  22
TORSDOF 7
ENDMDL
MODEL 7
REMARK VINA RESULT:      -5.4      2.944      6.687
REMARK  7 active torsions:
REMARK  status: ('A' for Active; 'I' for Inactive)
REMARK    1  A    between atoms: C_2  and  C_3 
REMARK    2  A    between atoms: C_3  and  O_6 
REMARK    3  A    between atoms: C_3  and  C_4 
REMARK    4  A    between atoms: C_7  and  O_6 
REMARK    5  A    between atoms: C_9  and  C_10 
REMARK    6  A    between atoms: N_15  and  C_14 
REMARK    7  A    between atoms: N_20  and  C_19 
REMARK       I    between atoms: C_22  and  N_20 
ROOT
ATOM      1  C   LIG d   1       1.502  85.873 112.677  0.00  0.00     0.161 C 
ATOM      2  C   LIG d   1       0.358  85.098 112.932  0.00  0.00     0.016 C 
ATOM      3  C   LIG d   1      -0.116  84.816 114.233  0.00  0.00     0.038 C 
ATOM      4  C   LIG d   1       0.438  85.419 115.372  0.00  0.00     0.028 C 
ATOM      5  C   LIG d   1       1.903  85.806 115.199  0.00  0.00    -0.047 C 
ATOM      6  C   LIG d   1       2.055  86.632 113.901  0.00  0.00     0.091 C 
ENDROOT
BRANCH   1   7
ATOM      7  O   LIG d   1       1.240  86.790 111.596  0.00  0.00    -0.368 OA
BRANCH   7   8
ATOM      8  C   LIG d   1       1.935  86.525 110.353  0.00  0.00     0.119 C 
BRANCH   8   9
ATOM      9  C   LIG d   1       0.879  86.108 109.311  0.00  0.00     0.028 C 
ATOM     10  C   LIG d   1      -0.552  86.457 109.754  0.00  0.00     0.006 C 
ENDBRANCH   8   9
BRANCH   8  11
ATOM     11  C   LIG d   1       2.873  85.321 110.484  0.00  0.00     0.028 C 
ATOM     12  C   LIG d   1       4.356  85.706 110.372  0.00  0.00     0.006 C 
ENDBRANCH   8  11
ENDBRANCH   7   8
ENDBRANCH   1   7
BRANCH   6  13
ATOM     13  N   LIG d   1       3.471  86.980 113.613  0.00  0.00    -0.311 N 
ATOM     14  C   LIG d   1       3.857  88.178 113.180  0.00  0.00     0.210 C 
ATOM     15  C   LIG d   1       5.362  88.320 112.926  0.00  0.00     0.109 C 
ATOM     16  O   LIG d   1       3.102  89.148 113.014  0.00  0.00    -0.276 OA
ATOM     17  H   LIG d   1       4.154  86.261 113.751  0.00  0.00     0.149 HD
ENDBRANCH   6  13
BRANCH   5  18
ATOM     18  N   LIG d   1       2.313  86.547 116.407  0.00  0.00     0.381 N 
ATOM     19  H   LIG d   1       1.608  86.464 117.112  0.00  0.00    -0.090 HD
ATOM     20  H   LIG d   1       2.412  87.520 116.174  0.00  0.00    -0.090 HD
ATOM     21  H   LIG d   1       3.178  86.190 116.749  0.00  0.00    -0.090 HD
ENDBRANCH   5  18
BRANCH   3  22
ATOM     22  C   LIG d   1      -1.132  83.889 114.408  0.00  0.00     0.382 C 
ATOM     23  O   LIG d   1      -1.772  83.465 113.416  0.00  0.00    -0.241 OA
ATOM     24  O   LIG d   1      -1.447  83.504 115.550  0.00  0.00    -0.241 OA
ENDBRANCH   3  22
TORSDOF 7
ENDMDL
MODEL 8
REMARK VINA RESULT:      -5.4      3.881      6.207
REMARK  7 active torsions:
REMARK  status: ('A' for Active; 'I' for Inactive)
REMARK    1  A    between atoms: C_2  and  C_3 
REMARK    2  A    between atoms: C_3  and  O_6 
REMARK    3  A    between atoms: C_3  and  C_4 
REMARK    4  A    between atoms: C_7  and  O_6 
REMARK    5  A    between atoms: C_9  and  C_10 
REMARK    6  A    between atoms: N_15  and  C_14 
REMARK    7  A    between atoms: N_20  and  C_19 
REMARK       I    between atoms: C_22  and  N_20 
ROOT
ATOM      1  C   LIG d   1       2.967  83.620 109.810  0.00  0.00     0.161 C 
ATOM      2  C   LIG d   1       2.668  82.287 109.481  0.00  0.00     0.016 C 
ATOM      3  C   LIG d   1       2.874  81.203 110.364  0.00  0.00     0.038 C 
ATOM      4  C   LIG d   1       3.254  81.397 111.701  0.00  0.00     0.028 C 
ATOM      5  C   LIG d   1       4.050  82.679 111.924  0.00  0.00    -0.047 C 
ATOM      6  C   LIG d   1       3.278  83.864 111.301  0.00  0.00     0.091 C 
ENDROOT
BRANCH   1   7
ATOM      7  O   LIG d   1       1.898  84.483 109.373  0.00  0.00    -0.368 OA
BRANCH   7   8
ATOM      8  C   LIG d   1       1.046  85.019 110.414  0.00  0.00     0.119 C 
BRANCH   8   9
ATOM      9  C   LIG d   1      -0.287  84.246 110.365  0.00  0.00     0.028 C 
ATOM     10  C   LIG d   1      -0.432  83.252 111.529  0.00  0.00     0.006 C 
ENDBRANCH   8   9
BRANCH   8  11
ATOM     11  C   LIG d   1       0.678  86.479 110.137  0.00  0.00     0.028 C 
ATOM     12  C   LIG d   1      -0.818  86.766 110.339  0.00  0.00     0.006 C 
ENDBRANCH   8  11
ENDBRANCH   7   8
ENDBRANCH   1   7
BRANCH   6  13
ATOM     13  N   LIG d   1       4.027  85.144 111.401  0.00  0.00    -0.311 N 
ATOM     14  C   LIG d   1       3.873  86.007 112.404  0.00  0.00     0.210 C 
ATOM     15  C   LIG d   1       4.728  87.274 112.303  0.00  0.00     0.109 C 
ATOM     16  O   LIG d   1       3.134  85.829 113.383  0.00  0.00    -0.276 OA
ATOM     17  H   LIG d   1       4.672  85.354 110.664  0.00  0.00     0.149 HD
ENDBRANCH   6  13
BRANCH   5  18
ATOM     18  N   LIG d   1       4.261  82.825 113.376  0.00  0.00     0.381 N 
ATOM     19  H   LIG d   1       4.420  83.787 113.600  0.00  0.00    -0.090 HD
ATOM     20  H   LIG d   1       5.076  82.301 113.641  0.00  0.00    -0.090 HD
ATOM     21  H   LIG d   1       3.465  82.488 113.872  0.00  0.00    -0.090 HD
ENDBRANCH   5  18
BRANCH   3  22
ATOM     22  C   LIG d   1       2.737  79.903 109.901  0.00  0.00     0.382 C 
ATOM     23  O   LIG d   1       3.687  79.092 110.020  0.00  0.00    -0.241 OA
ATOM     24  O   LIG d   1       1.693  79.544 109.325  0.00  0.00    -0.241 OA
ENDBRANCH   3  22
TORSDOF 7
ENDMDL
MODEL 9
REMARK VINA RESULT:      -5.4      2.822      6.460
REMARK  7 active torsions:
REMARK  status: ('A' for Active; 'I' for Inactive)
REMARK    1  A    between atoms: C_2  and  C_3 
REMARK    2  A    between atoms: C_3  and  O_6 
REMARK    3  A    between atoms: C_3  and  C_4 
REMARK    4  A    between atoms: C_7  and  O_6 
REMARK    5  A    between atoms: C_9  and  C_10 
REMARK    6  A    between atoms: N_15  and  C_14 
REMARK    7  A    between atoms: N_20  and  C_19 
REMARK       I    between atoms: C_22  and  N_20 
ROOT
ATOM      1  C   LIG d   1       1.800  85.110 112.750  0.00  0.00     0.161 C 
ATOM      2  C   LIG d   1       0.701  84.263 112.532  0.00  0.00     0.016 C 
ATOM      3  C   LIG d   1      -0.510  84.357 113.256  0.00  0.00     0.038 C 
ATOM      4  C   LIG d   1      -0.759  85.409 114.150  0.00  0.00     0.028 C 
ATOM      5  C   LIG d   1       0.507  85.990 114.770  0.00  0.00    -0.047 C 
ATOM      6  C   LIG d   1       1.506  86.334 113.643  0.00  0.00     0.091 C 
ENDROOT
BRANCH   1   7
ATOM      7  O   LIG d   1       2.350  85.533 111.486  0.00  0.00    -0.368 OA
BRANCH   7   8
ATOM      8  C   LIG d   1       1.622  85.118 110.304  0.00  0.00     0.119 C 
BRANCH   8   9
ATOM      9  C   LIG d   1       2.647  84.547 109.306  0.00  0.00     0.028 C 
ATOM     10  C   LIG d   1       4.079  84.549 109.868  0.00  0.00     0.006 C 
ENDBRANCH   8   9
BRANCH   8  11
ATOM     11  C   LIG d   1       0.987  86.317 109.593  0.00  0.00     0.028 C 
ATOM     12  C   LIG d   1      -0.546  86.327 109.696  0.00  0.00     0.006 C 
ENDBRANCH   8  11
ENDBRANCH   7   8
ENDBRANCH   1   7
BRANCH   6  13
ATOM     13  N   LIG d   1       2.805  86.830 114.168  0.00  0.00    -0.311 N 
ATOM     14  C   LIG d   1       3.397  87.940 113.732  0.00  0.00     0.210 C 
ATOM     15  C   LIG d   1       4.741  88.260 114.394  0.00  0.00     0.109 C 
ATOM     16  O   LIG d   1       2.921  88.708 112.882  0.00  0.00    -0.276 OA
ATOM     17  H   LIG d   1       3.246  86.284 114.883  0.00  0.00     0.149 HD
ENDBRANCH   6  13
BRANCH   5  18
ATOM     18  N   LIG d   1       0.112  87.164 115.571  0.00  0.00     0.381 N 
ATOM     19  H   LIG d   1       0.131  86.932 116.544  0.00  0.00    -0.090 HD
ATOM     20  H   LIG d   1      -0.827  87.424 115.327  0.00  0.00    -0.090 HD
ATOM     21  H   LIG d   1       0.732  87.923 115.392  0.00  0.00    -0.090 HD
ENDBRANCH   5  18
BRANCH   3  22
ATOM     22  C   LIG d   1      -1.471  83.368 113.118  0.00  0.00     0.382 C 
ATOM     23  O   LIG d   1      -2.111  82.971 114.122  0.00  0.00    -0.241 OA
ATOM     24  O   LIG d   1      -1.676  82.835 112.011  0.00  0.00    -0.241 OA
ENDBRANCH   3  22
TORSDOF 7
ENDMDL
