MODEL 1
REMARK VINA RESULT:      -6.1      0.000      0.000
REMARK  7 active torsions:
REMARK  status: ('A' for Active; 'I' for Inactive)
REMARK    1  A    between atoms: C_2  and  C_3 
REMARK    2  A    between atoms: C_3  and  O_6 
REMARK    3  A    between atoms: C_3  and  C_4 
REMARK    4  A    between atoms: C_7  and  O_6 
REMARK    5  A    between atoms: C_9  and  C_10 
REMARK    6  A    between atoms: N_15  and  C_14 
REMARK    7  A    between atoms: N_20  and  C_19 
REMARK       I    between atoms: C_22  and  N_20 
ROOT
ATOM      1  C   LIG d   1      -3.072  76.702 115.982  0.00  0.00     0.161 C 
ATOM      2  C   LIG d   1      -3.480  77.303 114.780  0.00  0.00     0.016 C 
ATOM      3  C   LIG d   1      -2.656  77.390 113.634  0.00  0.00     0.038 C 
ATOM      4  C   LIG d   1      -1.413  76.744 113.564  0.00  0.00     0.028 C 
ATOM      5  C   LIG d   1      -0.750  76.557 114.925  0.00  0.00    -0.047 C 
ATOM      6  C   LIG d   1      -1.761  75.894 115.888  0.00  0.00     0.091 C 
ENDROOT
BRANCH   1   7
ATOM      7  O   LIG d   1      -4.133  75.877 116.501  0.00  0.00    -0.368 OA
BRANCH   7   8
ATOM      8  C   LIG d   1      -5.256  75.650 115.613  0.00  0.00     0.119 C 
BRANCH   8   9
ATOM      9  C   LIG d   1      -6.542  75.957 116.406  0.00  0.00     0.028 C 
ATOM     10  C   LIG d   1      -6.400  77.203 117.295  0.00  0.00     0.006 C 
ENDBRANCH   8   9
BRANCH   8  11
ATOM     11  C   LIG d   1      -5.365  74.174 115.219  0.00  0.00     0.028 C 
ATOM     12  C   LIG d   1      -6.414  73.413 116.045  0.00  0.00     0.006 C 
ENDBRANCH   8  11
ENDBRANCH   7   8
ENDBRANCH   1   7
BRANCH   6  13
ATOM     13  N   LIG d   1      -1.221  75.751 117.266  0.00  0.00    -0.311 N 
ATOM     14  C   LIG d   1      -0.622  74.647 117.708  0.00  0.00     0.210 C 
ATOM     15  C   LIG d   1      -0.157  74.703 119.166  0.00  0.00     0.109 C 
ATOM     16  O   LIG d   1      -0.403  73.638 117.021  0.00  0.00    -0.276 OA
ATOM     17  H   LIG d   1      -1.328  76.534 117.881  0.00  0.00     0.149 HD
ENDBRANCH   6  13
BRANCH   5  18
ATOM     18  N   LIG d   1       0.468  75.750 114.720  0.00  0.00     0.381 N 
ATOM     19  H   LIG d   1       0.433  75.305 113.825  0.00  0.00    -0.090 HD
ATOM     20  H   LIG d   1       0.507  75.036 115.426  0.00  0.00    -0.090 HD
ATOM     21  H   LIG d   1       1.275  76.331 114.779  0.00  0.00    -0.090 HD
ENDBRANCH   5  18
BRANCH   3  22
ATOM     22  C   LIG d   1      -3.057  78.165 112.556  0.00  0.00     0.382 C 
ATOM     23  O   LIG d   1      -2.312  79.080 112.130  0.00  0.00    -0.241 OA
ATOM     24  O   LIG d   1      -4.173  77.988 112.032  0.00  0.00    -0.241 OA
ENDBRANCH   3  22
TORSDOF 7
ENDMDL
MODEL 2
REMARK VINA RESULT:      -6.0     15.472     17.276
REMARK  7 active torsions:
REMARK  status: ('A' for Active; 'I' for Inactive)
REMARK    1  A    between atoms: C_2  and  C_3 
REMARK    2  A    between atoms: C_3  and  O_6 
REMARK    3  A    between atoms: C_3  and  C_4 
REMARK    4  A    between atoms: C_7  and  O_6 
REMARK    5  A    between atoms: C_9  and  C_10 
REMARK    6  A    between atoms: N_15  and  C_14 
REMARK    7  A    between atoms: N_20  and  C_19 
REMARK       I    between atoms: C_22  and  N_20 
ROOT
ATOM      1  C   LIG d   1      -5.381  91.985 117.770  0.00  0.00     0.161 C 
ATOM      2  C   LIG d   1      -5.467  91.340 116.525  0.00  0.00     0.016 C 
ATOM      3  C   LIG d   1      -6.599  91.423 115.682  0.00  0.00     0.038 C 
ATOM      4  C   LIG d   1      -7.669  92.286 115.961  0.00  0.00     0.028 C 
ATOM      5  C   LIG d   1      -7.848  92.568 117.449  0.00  0.00    -0.047 C 
ATOM      6  C   LIG d   1      -6.493  93.020 118.041  0.00  0.00     0.091 C 
ENDROOT
BRANCH   1   7
ATOM      7  O   LIG d   1      -4.083  92.595 117.916  0.00  0.00    -0.368 OA
BRANCH   7   8
ATOM      8  C   LIG d   1      -2.962  91.686 118.039  0.00  0.00     0.119 C 
BRANCH   8   9
ATOM      9  C   LIG d   1      -3.220  90.795 119.269  0.00  0.00     0.028 C 
ATOM     10  C   LIG d   1      -3.126  89.296 118.939  0.00  0.00     0.006 C 
ENDBRANCH   8   9
BRANCH   8  11
ATOM     11  C   LIG d   1      -1.665  92.439 118.349  0.00  0.00     0.028 C 
ATOM     12  C   LIG d   1      -1.634  93.849 117.738  0.00  0.00     0.006 C 
ENDBRANCH   8  11
ENDBRANCH   7   8
ENDBRANCH   1   7
BRANCH   6  13
ATOM     13  N   LIG d   1      -6.559  93.235 119.510  0.00  0.00    -0.311 N 
ATOM     14  C   LIG d   1      -6.799  94.421 120.067  0.00  0.00     0.210 C 
ATOM     15  C   LIG d   1      -6.805  94.426 121.599  0.00  0.00     0.109 C 
ATOM     16  O   LIG d   1      -7.039  95.462 119.437  0.00  0.00    -0.276 OA
ATOM     17  H   LIG d   1      -6.407  92.437 120.095  0.00  0.00     0.149 HD
ENDBRANCH   6  13
BRANCH   5  18
ATOM     18  N   LIG d   1      -8.907  93.586 117.586  0.00  0.00     0.381 N 
ATOM     19  H   LIG d   1      -9.701  93.188 118.047  0.00  0.00    -0.090 HD
ATOM     20  H   LIG d   1      -9.191  93.884 116.670  0.00  0.00    -0.090 HD
ATOM     21  H   LIG d   1      -8.566  94.364 118.106  0.00  0.00    -0.090 HD
ENDBRANCH   5  18
BRANCH   3  22
ATOM     22  C   LIG d   1      -6.685  90.607 114.564  0.00  0.00     0.382 C 
ATOM     23  O   LIG d   1      -7.437  90.925 113.612  0.00  0.00    -0.241 OA
ATOM     24  O   LIG d   1      -6.054  89.535 114.515  0.00  0.00    -0.241 OA
ENDBRANCH   3  22
TORSDOF 7
ENDMDL
MODEL 3
REMARK VINA RESULT:      -5.5     15.378     17.176
REMARK  7 active torsions:
REMARK  status: ('A' for Active; 'I' for Inactive)
REMARK    1  A    between atoms: C_2  and  C_3 
REMARK    2  A    between atoms: C_3  and  O_6 
REMARK    3  A    between atoms: C_3  and  C_4 
REMARK    4  A    between atoms: C_7  and  O_6 
REMARK    5  A    between atoms: C_9  and  C_10 
REMARK    6  A    between atoms: N_15  and  C_14 
REMARK    7  A    between atoms: N_20  and  C_19 
REMARK       I    between atoms: C_22  and  N_20 
ROOT
ATOM      1  C   LIG d   1      -4.925  92.033 117.522  0.00  0.00     0.161 C 
ATOM      2  C   LIG d   1      -4.591  92.796 118.653  0.00  0.00     0.016 C 
ATOM      3  C   LIG d   1      -5.508  93.640 119.321  0.00  0.00     0.038 C 
ATOM      4  C   LIG d   1      -6.871  93.661 118.992  0.00  0.00     0.028 C 
ATOM      5  C   LIG d   1      -7.150  93.290 117.539  0.00  0.00    -0.047 C 
ATOM      6  C   LIG d   1      -6.436  91.958 117.216  0.00  0.00     0.091 C 
ENDROOT
BRANCH   1   7
ATOM      7  O   LIG d   1      -4.373  90.707 117.647  0.00  0.00    -0.368 OA
BRANCH   7   8
ATOM      8  C   LIG d   1      -3.252  90.566 118.554  0.00  0.00     0.119 C 
BRANCH   8   9
ATOM      9  C   LIG d   1      -1.963  90.654 117.714  0.00  0.00     0.028 C 
ATOM     10  C   LIG d   1      -1.010  91.753 118.215  0.00  0.00     0.006 C 
ENDBRANCH   8   9
BRANCH   8  11
ATOM     11  C   LIG d   1      -3.225  89.175 119.194  0.00  0.00     0.028 C 
ATOM     12  C   LIG d   1      -2.874  89.215 120.690  0.00  0.00     0.006 C 
ENDBRANCH   8  11
ENDBRANCH   7   8
ENDBRANCH   1   7
BRANCH   6  13
ATOM     13  N   LIG d   1      -6.587  91.565 115.790  0.00  0.00    -0.311 N 
ATOM     14  C   LIG d   1      -7.496  90.690 115.363  0.00  0.00     0.210 C 
ATOM     15  C   LIG d   1      -7.468  90.412 113.857  0.00  0.00     0.109 C 
ATOM     16  O   LIG d   1      -8.343  90.143 116.084  0.00  0.00    -0.276 OA
ATOM     17  H   LIG d   1      -5.960  91.986 115.132  0.00  0.00     0.149 HD
ENDBRANCH   6  13
BRANCH   5  18
ATOM     18  N   LIG d   1      -8.613  93.218 117.370  0.00  0.00     0.381 N 
ATOM     19  H   LIG d   1      -8.967  94.113 117.096  0.00  0.00    -0.090 HD
ATOM     20  H   LIG d   1      -9.030  92.970 118.249  0.00  0.00    -0.090 HD
ATOM     21  H   LIG d   1      -8.844  92.537 116.680  0.00  0.00    -0.090 HD
ENDBRANCH   5  18
BRANCH   3  22
ATOM     22  C   LIG d   1      -5.055  94.504 120.306  0.00  0.00     0.382 C 
ATOM     23  O   LIG d   1      -4.464  94.050 121.315  0.00  0.00    -0.241 OA
ATOM     24  O   LIG d   1      -5.268  95.728 120.219  0.00  0.00    -0.241 OA
ENDBRANCH   3  22
TORSDOF 7
ENDMDL
MODEL 4
REMARK VINA RESULT:      -5.2      2.610      5.577
REMARK  7 active torsions:
REMARK  status: ('A' for Active; 'I' for Inactive)
REMARK    1  A    between atoms: C_2  and  C_3 
REMARK    2  A    between atoms: C_3  and  O_6 
REMARK    3  A    between atoms: C_3  and  C_4 
REMARK    4  A    between atoms: C_7  and  O_6 
REMARK    5  A    between atoms: C_9  and  C_10 
REMARK    6  A    between atoms: N_15  and  C_14 
REMARK    7  A    between atoms: N_20  and  C_19 
REMARK       I    between atoms: C_22  and  N_20 
ROOT
ATOM      1  C   LIG d   1      -3.907  75.579 115.663  0.00  0.00     0.161 C 
ATOM      2  C   LIG d   1      -4.762  74.499 115.390  0.00  0.00     0.016 C 
ATOM      3  C   LIG d   1      -6.103  74.435 115.834  0.00  0.00     0.038 C 
ATOM      4  C   LIG d   1      -6.729  75.525 116.458  0.00  0.00     0.028 C 
ATOM      5  C   LIG d   1      -5.759  76.438 117.200  0.00  0.00    -0.047 C 
ATOM      6  C   LIG d   1      -4.606  76.825 116.246  0.00  0.00     0.091 C 
ENDROOT
BRANCH   1   7
ATOM      7  O   LIG d   1      -3.167  75.929 114.476  0.00  0.00    -0.368 OA
BRANCH   7   8
ATOM      8  C   LIG d   1      -1.802  76.367 114.682  0.00  0.00     0.119 C 
BRANCH   8   9
ATOM      9  C   LIG d   1      -1.529  77.515 113.690  0.00  0.00     0.028 C 
ATOM     10  C   LIG d   1      -2.792  77.939 112.922  0.00  0.00     0.006 C 
ENDBRANCH   8   9
BRANCH   8  11
ATOM     11  C   LIG d   1      -0.802  75.267 114.314  0.00  0.00     0.028 C 
ATOM     12  C   LIG d   1      -0.510  74.312 115.483  0.00  0.00     0.006 C 
ENDBRANCH   8  11
ENDBRANCH   7   8
ENDBRANCH   1   7
BRANCH   6  13
ATOM     13  N   LIG d   1      -3.567  77.650 116.918  0.00  0.00    -0.311 N 
ATOM     14  C   LIG d   1      -3.608  78.980 116.968  0.00  0.00     0.210 C 
ATOM     15  C   LIG d   1      -2.427  79.636 117.692  0.00  0.00     0.109 C 
ATOM     16  O   LIG d   1      -4.525  79.678 116.511  0.00  0.00    -0.276 OA
ATOM     17  H   LIG d   1      -2.803  77.163 117.343  0.00  0.00     0.149 HD
ENDBRANCH   6  13
BRANCH   5  18
ATOM     18  N   LIG d   1      -6.524  77.602 117.684  0.00  0.00     0.381 N 
ATOM     19  H   LIG d   1      -6.835  78.150 116.907  0.00  0.00    -0.090 HD
ATOM     20  H   LIG d   1      -5.924  78.172 118.253  0.00  0.00    -0.090 HD
ATOM     21  H   LIG d   1      -7.308  77.296 118.218  0.00  0.00    -0.090 HD
ENDBRANCH   5  18
BRANCH   3  22
ATOM     22  C   LIG d   1      -6.819  73.257 115.691  0.00  0.00     0.382 C 
ATOM     23  O   LIG d   1      -8.038  73.225 115.985  0.00  0.00    -0.241 OA
ATOM     24  O   LIG d   1      -6.251  72.214 115.315  0.00  0.00    -0.241 OA
ENDBRANCH   3  22
TORSDOF 7
ENDMDL
MODEL 5
REMARK VINA RESULT:      -5.0     16.193     17.556
REMARK  7 active torsions:
REMARK  status: ('A' for Active; 'I' for Inactive)
REMARK    1  A    between atoms: C_2  and  C_3 
REMARK    2  A    between atoms: C_3  and  O_6 
REMARK    3  A    between atoms: C_3  and  C_4 
REMARK    4  A    between atoms: C_7  and  O_6 
REMARK    5  A    between atoms: C_9  and  C_10 
REMARK    6  A    between atoms: N_15  and  C_14 
REMARK    7  A    between atoms: N_20  and  C_19 
REMARK       I    between atoms: C_22  and  N_20 
ROOT
ATOM      1  C   LIG d   1      -5.672  93.149 118.694  0.00  0.00     0.161 C 
ATOM      2  C   LIG d   1      -6.561  92.815 117.659  0.00  0.00     0.016 C 
ATOM      3  C   LIG d   1      -6.257  91.881 116.642  0.00  0.00     0.038 C 
ATOM      4  C   LIG d   1      -5.092  91.100 116.678  0.00  0.00     0.028 C 
ATOM      5  C   LIG d   1      -3.940  91.763 117.425  0.00  0.00    -0.047 C 
ATOM      6  C   LIG d   1      -4.441  92.225 118.812  0.00  0.00     0.091 C 
ENDROOT
BRANCH   1   7
ATOM      7  O   LIG d   1      -6.380  93.203 119.948  0.00  0.00    -0.368 OA
BRANCH   7   8
ATOM      8  C   LIG d   1      -6.574  94.523 120.514  0.00  0.00     0.119 C 
BRANCH   8   9
ATOM      9  C   LIG d   1      -8.018  94.955 120.193  0.00  0.00     0.028 C 
ATOM     10  C   LIG d   1      -8.080  96.018 119.084  0.00  0.00     0.006 C 
ENDBRANCH   8   9
BRANCH   8  11
ATOM     11  C   LIG d   1      -5.679  95.560 119.829  0.00  0.00     0.028 C 
ATOM     12  C   LIG d   1      -4.605  96.132 120.768  0.00  0.00     0.006 C 
ENDBRANCH   8  11
ENDBRANCH   7   8
ENDBRANCH   1   7
BRANCH   6  13
ATOM     13  N   LIG d   1      -3.399  92.960 119.575  0.00  0.00    -0.311 N 
ATOM     14  C   LIG d   1      -2.602  92.381 120.472  0.00  0.00     0.210 C 
ATOM     15  C   LIG d   1      -1.610  93.324 121.160  0.00  0.00     0.109 C 
ATOM     16  O   LIG d   1      -2.601  91.170 120.739  0.00  0.00    -0.276 OA
ATOM     17  H   LIG d   1      -3.310  93.941 119.398  0.00  0.00     0.149 HD
ENDBRANCH   6  13
BRANCH   5  18
ATOM     18  N   LIG d   1      -2.838  90.786 117.504  0.00  0.00     0.381 N 
ATOM     19  H   LIG d   1      -3.179  89.921 117.875  0.00  0.00    -0.090 HD
ATOM     20  H   LIG d   1      -2.133  91.140 118.126  0.00  0.00    -0.090 HD
ATOM     21  H   LIG d   1      -2.449  90.636 116.599  0.00  0.00    -0.090 HD
ENDBRANCH   5  18
BRANCH   3  22
ATOM     22  C   LIG d   1      -7.105  91.750 115.553  0.00  0.00     0.382 C 
ATOM     23  O   LIG d   1      -8.183  91.120 115.670  0.00  0.00    -0.241 OA
ATOM     24  O   LIG d   1      -6.784  92.215 114.443  0.00  0.00    -0.241 OA
ENDBRANCH   3  22
TORSDOF 7
ENDMDL
MODEL 6
REMARK VINA RESULT:      -4.7      2.743      4.011
REMARK  7 active torsions:
REMARK  status: ('A' for Active; 'I' for Inactive)
REMARK    1  A    between atoms: C_2  and  C_3 
REMARK    2  A    between atoms: C_3  and  O_6 
REMARK    3  A    between atoms: C_3  and  C_4 
REMARK    4  A    between atoms: C_7  and  O_6 
REMARK    5  A    between atoms: C_9  and  C_10 
REMARK    6  A    between atoms: N_15  and  C_14 
REMARK    7  A    between atoms: N_20  and  C_19 
REMARK       I    between atoms: C_22  and  N_20 
ROOT
ATOM      1  C   LIG d   1      -3.416  77.140 116.706  0.00  0.00     0.161 C 
ATOM      2  C   LIG d   1      -3.978  78.222 117.404  0.00  0.00     0.016 C 
ATOM      3  C   LIG d   1      -3.322  79.463 117.575  0.00  0.00     0.038 C 
ATOM      4  C   LIG d   1      -2.115  79.759 116.925  0.00  0.00     0.028 C 
ATOM      5  C   LIG d   1      -1.270  78.525 116.624  0.00  0.00    -0.047 C 
ATOM      6  C   LIG d   1      -2.148  77.481 115.896  0.00  0.00     0.091 C 
ENDROOT
BRANCH   1   7
ATOM      7  O   LIG d   1      -4.410  76.540 115.851  0.00  0.00    -0.368 OA
BRANCH   7   8
ATOM      8  C   LIG d   1      -5.022  75.322 116.342  0.00  0.00     0.119 C 
BRANCH   8   9
ATOM      9  C   LIG d   1      -5.200  74.376 115.139  0.00  0.00     0.028 C 
ATOM     10  C   LIG d   1      -6.023  73.126 115.492  0.00  0.00     0.006 C 
ENDBRANCH   8   9
BRANCH   8  11
ATOM     11  C   LIG d   1      -6.437  75.582 116.867  0.00  0.00     0.028 C 
ATOM     12  C   LIG d   1      -7.089  76.821 116.234  0.00  0.00     0.006 C 
ENDBRANCH   8  11
ENDBRANCH   7   8
ENDBRANCH   1   7
BRANCH   6  13
ATOM     13  N   LIG d   1      -1.422  76.210 115.639  0.00  0.00    -0.311 N 
ATOM     14  C   LIG d   1      -1.166  75.746 114.418  0.00  0.00     0.210 C 
ATOM     15  C   LIG d   1      -0.423  74.407 114.377  0.00  0.00     0.109 C 
ATOM     16  O   LIG d   1      -1.455  76.331 113.363  0.00  0.00    -0.276 OA
ATOM     17  H   LIG d   1      -1.123  75.687 116.439  0.00  0.00     0.149 HD
ENDBRANCH   6  13
BRANCH   5  18
ATOM     18  N   LIG d   1      -0.110  78.963 115.826  0.00  0.00     0.381 N 
ATOM     19  H   LIG d   1      -0.349  79.780 115.300  0.00  0.00    -0.090 HD
ATOM     20  H   LIG d   1       0.135  78.233 115.180  0.00  0.00    -0.090 HD
ATOM     21  H   LIG d   1       0.662  79.159 116.425  0.00  0.00    -0.090 HD
ENDBRANCH   5  18
BRANCH   3  22
ATOM     22  C   LIG d   1      -3.856  80.409 118.436  0.00  0.00     0.382 C 
ATOM     23  O   LIG d   1      -3.165  80.855 119.384  0.00  0.00    -0.241 OA
ATOM     24  O   LIG d   1      -5.034  80.790 118.303  0.00  0.00    -0.241 OA
ENDBRANCH   3  22
TORSDOF 7
ENDMDL
MODEL 7
REMARK VINA RESULT:      -4.6     14.539     17.158
REMARK  7 active torsions:
REMARK  status: ('A' for Active; 'I' for Inactive)
REMARK    1  A    between atoms: C_2  and  C_3 
REMARK    2  A    between atoms: C_3  and  O_6 
REMARK    3  A    between atoms: C_3  and  C_4 
REMARK    4  A    between atoms: C_7  and  O_6 
REMARK    5  A    between atoms: C_9  and  C_10 
REMARK    6  A    between atoms: N_15  and  C_14 
REMARK    7  A    between atoms: N_20  and  C_19 
REMARK       I    between atoms: C_22  and  N_20 
ROOT
ATOM      1  C   LIG d   1     -14.858  65.338 118.388  0.00  0.00     0.161 C 
ATOM      2  C   LIG d   1     -14.150  65.875 119.476  0.00  0.00     0.016 C 
ATOM      3  C   LIG d   1     -13.973  67.263 119.680  0.00  0.00     0.038 C 
ATOM      4  C   LIG d   1     -14.624  68.218 118.886  0.00  0.00     0.028 C 
ATOM      5  C   LIG d   1     -14.937  67.724 117.477  0.00  0.00    -0.047 C 
ATOM      6  C   LIG d   1     -15.670  66.366 117.574  0.00  0.00     0.091 C 
ENDROOT
BRANCH   1   7
ATOM      7  O   LIG d   1     -15.714  64.270 118.842  0.00  0.00    -0.368 OA
BRANCH   7   8
ATOM      8  C   LIG d   1     -16.208  64.383 120.199  0.00  0.00     0.119 C 
BRANCH   8   9
ATOM      9  C   LIG d   1     -16.150  62.978 120.831  0.00  0.00     0.028 C 
ATOM     10  C   LIG d   1     -14.708  62.465 120.987  0.00  0.00     0.006 C 
ENDBRANCH   8   9
BRANCH   8  11
ATOM     11  C   LIG d   1     -17.688  64.776 120.222  0.00  0.00     0.028 C 
ATOM     12  C   LIG d   1     -17.903  66.271 120.507  0.00  0.00     0.006 C 
ENDBRANCH   8  11
ENDBRANCH   7   8
ENDBRANCH   1   7
BRANCH   6  13
ATOM     13  N   LIG d   1     -15.939  65.771 116.238  0.00  0.00    -0.311 N 
ATOM     14  C   LIG d   1     -17.147  65.376 115.841  0.00  0.00     0.210 C 
ATOM     15  C   LIG d   1     -17.200  64.772 114.435  0.00  0.00     0.109 C 
ATOM     16  O   LIG d   1     -18.186  65.499 116.508  0.00  0.00    -0.276 OA
ATOM     17  H   LIG d   1     -15.157  65.664 115.621  0.00  0.00     0.149 HD
ENDBRANCH   6  13
BRANCH   5  18
ATOM     18  N   LIG d   1     -15.736  68.766 116.806  0.00  0.00     0.381 N 
ATOM     19  H   LIG d   1     -15.170  69.575 116.643  0.00  0.00    -0.090 HD
ATOM     20  H   LIG d   1     -16.497  69.030 117.408  0.00  0.00    -0.090 HD
ATOM     21  H   LIG d   1     -16.091  68.420 115.942  0.00  0.00    -0.090 HD
ENDBRANCH   5  18
BRANCH   3  22
ATOM     22  C   LIG d   1     -13.102  67.708 120.664  0.00  0.00     0.382 C 
ATOM     23  O   LIG d   1     -12.521  66.880 121.407  0.00  0.00    -0.241 OA
ATOM     24  O   LIG d   1     -12.926  68.927 120.847  0.00  0.00    -0.241 OA
ENDBRANCH   3  22
TORSDOF 7
ENDMDL
MODEL 8
REMARK VINA RESULT:      -4.6      2.749      4.263
REMARK  7 active torsions:
REMARK  status: ('A' for Active; 'I' for Inactive)
REMARK    1  A    between atoms: C_2  and  C_3 
REMARK    2  A    between atoms: C_3  and  O_6 
REMARK    3  A    between atoms: C_3  and  C_4 
REMARK    4  A    between atoms: C_7  and  O_6 
REMARK    5  A    between atoms: C_9  and  C_10 
REMARK    6  A    between atoms: N_15  and  C_14 
REMARK    7  A    between atoms: N_20  and  C_19 
REMARK       I    between atoms: C_22  and  N_20 
ROOT
ATOM      1  C   LIG d   1      -3.858  77.098 117.262  0.00  0.00     0.161 C 
ATOM      2  C   LIG d   1      -5.125  77.704 117.271  0.00  0.00     0.016 C 
ATOM      3  C   LIG d   1      -5.327  79.080 117.527  0.00  0.00     0.038 C 
ATOM      4  C   LIG d   1      -4.256  79.978 117.645  0.00  0.00     0.028 C 
ATOM      5  C   LIG d   1      -2.971  79.326 118.145  0.00  0.00    -0.047 C 
ATOM      6  C   LIG d   1      -2.670  78.082 117.278  0.00  0.00     0.091 C 
ENDROOT
BRANCH   1   7
ATOM      7  O   LIG d   1      -3.752  76.203 116.137  0.00  0.00    -0.368 OA
BRANCH   7   8
ATOM      8  C   LIG d   1      -4.967  75.989 115.377  0.00  0.00     0.119 C 
BRANCH   8   9
ATOM      9  C   LIG d   1      -5.249  74.474 115.372  0.00  0.00     0.028 C 
ATOM     10  C   LIG d   1      -6.351  74.079 116.369  0.00  0.00     0.006 C 
ENDBRANCH   8   9
BRANCH   8  11
ATOM     11  C   LIG d   1      -4.778  76.371 113.906  0.00  0.00     0.028 C 
ATOM     12  C   LIG d   1      -3.456  77.112 113.648  0.00  0.00     0.006 C 
ENDBRANCH   8  11
ENDBRANCH   7   8
ENDBRANCH   1   7
BRANCH   6  13
ATOM     13  N   LIG d   1      -1.475  77.336 117.753  0.00  0.00    -0.311 N 
ATOM     14  C   LIG d   1      -0.461  76.994 116.959  0.00  0.00     0.210 C 
ATOM     15  C   LIG d   1       0.662  76.211 117.646  0.00  0.00     0.109 C 
ATOM     16  O   LIG d   1      -0.371  77.292 115.759  0.00  0.00    -0.276 OA
ATOM     17  H   LIG d   1      -1.451  77.082 118.721  0.00  0.00     0.149 HD
ENDBRANCH   6  13
BRANCH   5  18
ATOM     18  N   LIG d   1      -1.904  80.342 118.088  0.00  0.00     0.381 N 
ATOM     19  H   LIG d   1      -2.073  80.968 117.326  0.00  0.00    -0.090 HD
ATOM     20  H   LIG d   1      -1.025  79.882 117.930  0.00  0.00    -0.090 HD
ATOM     21  H   LIG d   1      -1.872  80.851 118.944  0.00  0.00    -0.090 HD
ENDBRANCH   5  18
BRANCH   3  22
ATOM     22  C   LIG d   1      -6.614  79.563 117.709  0.00  0.00     0.382 C 
ATOM     23  O   LIG d   1      -6.875  80.764 117.456  0.00  0.00    -0.241 OA
ATOM     24  O   LIG d   1      -7.508  78.824 118.165  0.00  0.00    -0.241 OA
ENDBRANCH   3  22
TORSDOF 7
ENDMDL
MODEL 9
REMARK VINA RESULT:      -4.5      2.632      3.846
REMARK  7 active torsions:
REMARK  status: ('A' for Active; 'I' for Inactive)
REMARK    1  A    between atoms: C_2  and  C_3 
REMARK    2  A    between atoms: C_3  and  O_6 
REMARK    3  A    between atoms: C_3  and  C_4 
REMARK    4  A    between atoms: C_7  and  O_6 
REMARK    5  A    between atoms: C_9  and  C_10 
REMARK    6  A    between atoms: N_15  and  C_14 
REMARK    7  A    between atoms: N_20  and  C_19 
REMARK       I    between atoms: C_22  and  N_20 
ROOT
ATOM      1  C   LIG d   1      -1.814  77.783 116.197  0.00  0.00     0.161 C 
ATOM      2  C   LIG d   1      -3.048  77.510 115.583  0.00  0.00     0.016 C 
ATOM      3  C   LIG d   1      -3.401  76.238 115.077  0.00  0.00     0.038 C 
ATOM      4  C   LIG d   1      -2.597  75.107 115.287  0.00  0.00     0.028 C 
ATOM      5  C   LIG d   1      -1.119  75.438 115.457  0.00  0.00    -0.047 C 
ATOM      6  C   LIG d   1      -0.971  76.536 116.535  0.00  0.00     0.091 C 
ENDROOT
BRANCH   1   7
ATOM      7  O   LIG d   1      -2.023  78.582 117.378  0.00  0.00    -0.368 OA
BRANCH   7   8
ATOM      8  C   LIG d   1      -2.636  77.908 118.504  0.00  0.00     0.119 C 
BRANCH   8   9
ATOM      9  C   LIG d   1      -3.856  78.745 118.936  0.00  0.00     0.028 C 
ATOM     10  C   LIG d   1      -3.952  80.078 118.176  0.00  0.00     0.006 C 
ENDBRANCH   8   9
BRANCH   8  11
ATOM     11  C   LIG d   1      -1.704  77.892 119.719  0.00  0.00     0.028 C 
ATOM     12  C   LIG d   1      -0.638  78.998 119.667  0.00  0.00     0.006 C 
ENDBRANCH   8  11
ENDBRANCH   7   8
ENDBRANCH   1   7
BRANCH   6  13
ATOM     13  N   LIG d   1       0.438  76.978 116.704  0.00  0.00    -0.311 N 
ATOM     14  C   LIG d   1       1.240  76.522 117.665  0.00  0.00     0.210 C 
ATOM     15  C   LIG d   1       2.648  77.125 117.672  0.00  0.00     0.109 C 
ATOM     16  O   LIG d   1       0.929  75.652 118.492  0.00  0.00    -0.276 OA
ATOM     17  H   LIG d   1       0.783  77.660 116.056  0.00  0.00     0.149 HD
ENDBRANCH   6  13
BRANCH   5  18
ATOM     18  N   LIG d   1      -0.419  74.187 115.806  0.00  0.00     0.381 N 
ATOM     19  H   LIG d   1       0.265  73.975 115.108  0.00  0.00    -0.090 HD
ATOM     20  H   LIG d   1      -1.088  73.437 115.831  0.00  0.00    -0.090 HD
ATOM     21  H   LIG d   1       0.021  74.279 116.696  0.00  0.00    -0.090 HD
ENDBRANCH   5  18
BRANCH   3  22
ATOM     22  C   LIG d   1      -4.551  76.096 114.315  0.00  0.00     0.382 C 
ATOM     23  O   LIG d   1      -5.495  75.382 114.733  0.00  0.00    -0.241 OA
ATOM     24  O   LIG d   1      -4.639  76.637 113.197  0.00  0.00    -0.241 OA
ENDBRANCH   3  22
TORSDOF 7
ENDMDL
