MODEL 1
REMARK VINA RESULT:      -7.0      0.000      0.000
REMARK  7 active torsions:
REMARK  status: ('A' for Active; 'I' for Inactive)
REMARK    1  A    between atoms: C_2  and  C_3 
REMARK    2  A    between atoms: C_3  and  O_6 
REMARK    3  A    between atoms: C_3  and  C_4 
REMARK    4  A    between atoms: C_7  and  O_6 
REMARK    5  A    between atoms: C_9  and  C_10 
REMARK    6  A    between atoms: N_15  and  C_14 
REMARK    7  A    between atoms: N_20  and  C_19 
REMARK       I    between atoms: C_22  and  N_20 
ROOT
ATOM      1  C   LIG d   1       0.873  84.106 109.175  0.00  0.00     0.161 C 
ATOM      2  C   LIG d   1       0.639  85.399 109.672  0.00  0.00     0.016 C 
ATOM      3  C   LIG d   1      -0.008  85.654 110.903  0.00  0.00     0.038 C 
ATOM      4  C   LIG d   1      -0.332  84.623 111.798  0.00  0.00     0.028 C 
ATOM      5  C   LIG d   1      -0.571  83.281 111.115  0.00  0.00    -0.047 C 
ATOM      6  C   LIG d   1       0.626  82.969 110.189  0.00  0.00     0.091 C 
ENDROOT
BRANCH   1   7
ATOM      7  O   LIG d   1       2.210  84.022 108.643  0.00  0.00    -0.368 OA
BRANCH   7   8
ATOM      8  C   LIG d   1       3.211  83.455 109.523  0.00  0.00     0.119 C 
BRANCH   8   9
ATOM      9  C   LIG d   1       4.063  84.620 110.065  0.00  0.00     0.028 C 
ATOM     10  C   LIG d   1       3.864  84.839 111.575  0.00  0.00     0.006 C 
ENDBRANCH   8   9
BRANCH   8  11
ATOM     11  C   LIG d   1       4.189  82.562 108.754  0.00  0.00     0.028 C 
ATOM     12  C   LIG d   1       4.770  81.432 109.618  0.00  0.00     0.006 C 
ENDBRANCH   8  11
ENDBRANCH   7   8
ENDBRANCH   1   7
BRANCH   6  13
ATOM     13  N   LIG d   1       0.434  81.713 109.418  0.00  0.00    -0.311 N 
ATOM     14  C   LIG d   1       0.945  80.540 109.789  0.00  0.00     0.210 C 
ATOM     15  C   LIG d   1       0.644  79.375 108.841  0.00  0.00     0.109 C 
ATOM     16  O   LIG d   1       1.590  80.347 110.830  0.00  0.00    -0.276 OA
ATOM     17  H   LIG d   1      -0.103  81.772 108.575  0.00  0.00     0.149 HD
ENDBRANCH   6  13
BRANCH   5  18
ATOM     18  N   LIG d   1      -0.763  82.271 112.172  0.00  0.00     0.381 N 
ATOM     19  H   LIG d   1      -1.366  82.634 112.883  0.00  0.00    -0.090 HD
ATOM     20  H   LIG d   1       0.128  82.065 112.590  0.00  0.00    -0.090 HD
ATOM     21  H   LIG d   1      -1.156  81.442 111.785  0.00  0.00    -0.090 HD
ENDBRANCH   5  18
BRANCH   3  22
ATOM     22  C   LIG d   1      -0.374  86.951 111.231  0.00  0.00     0.382 C 
ATOM     23  O   LIG d   1       0.488  87.756 111.658  0.00  0.00    -0.241 OA
ATOM     24  O   LIG d   1      -1.563  87.312 111.148  0.00  0.00    -0.241 OA
ENDBRANCH   3  22
TORSDOF 7
ENDMDL
MODEL 2
REMARK VINA RESULT:      -6.3      2.495      4.259
REMARK  7 active torsions:
REMARK  status: ('A' for Active; 'I' for Inactive)
REMARK    1  A    between atoms: C_2  and  C_3 
REMARK    2  A    between atoms: C_3  and  O_6 
REMARK    3  A    between atoms: C_3  and  C_4 
REMARK    4  A    between atoms: C_7  and  O_6 
REMARK    5  A    between atoms: C_9  and  C_10 
REMARK    6  A    between atoms: N_15  and  C_14 
REMARK    7  A    between atoms: N_20  and  C_19 
REMARK       I    between atoms: C_22  and  N_20 
ROOT
ATOM      1  C   LIG d   1       0.275  82.661 111.067  0.00  0.00     0.161 C 
ATOM      2  C   LIG d   1      -0.841  82.395 111.878  0.00  0.00     0.016 C 
ATOM      3  C   LIG d   1      -1.330  81.092 112.125  0.00  0.00     0.038 C 
ATOM      4  C   LIG d   1      -0.640  79.947 111.697  0.00  0.00     0.028 C 
ATOM      5  C   LIG d   1       0.209  80.182 110.452  0.00  0.00    -0.047 C 
ATOM      6  C   LIG d   1       1.106  81.420 110.682  0.00  0.00     0.091 C 
ENDROOT
BRANCH   1   7
ATOM      7  O   LIG d   1       1.113  83.649 111.699  0.00  0.00    -0.368 OA
BRANCH   7   8
ATOM      8  C   LIG d   1       1.182  84.940 111.044  0.00  0.00     0.119 C 
BRANCH   8   9
ATOM      9  C   LIG d   1       0.250  84.887 109.818  0.00  0.00     0.028 C 
ATOM     10  C   LIG d   1       0.993  85.183 108.504  0.00  0.00     0.006 C 
ENDBRANCH   8   9
BRANCH   8  11
ATOM     11  C   LIG d   1       2.580  85.205 110.480  0.00  0.00     0.028 C 
ATOM     12  C   LIG d   1       3.689  84.506 111.283  0.00  0.00     0.006 C 
ENDBRANCH   8  11
ENDBRANCH   7   8
ENDBRANCH   1   7
BRANCH   6  13
ATOM     13  N   LIG d   1       1.908  81.770 109.481  0.00  0.00    -0.311 N 
ATOM     14  C   LIG d   1       3.175  81.395 109.311  0.00  0.00     0.210 C 
ATOM     15  C   LIG d   1       3.823  81.880 108.010  0.00  0.00     0.109 C 
ATOM     16  O   LIG d   1       3.813  80.681 110.098  0.00  0.00    -0.276 OA
ATOM     17  H   LIG d   1       1.458  82.321 108.777  0.00  0.00     0.149 HD
ENDBRANCH   6  13
BRANCH   5  18
ATOM     18  N   LIG d   1       0.978  78.949 110.198  0.00  0.00     0.381 N 
ATOM     19  H   LIG d   1       1.005  78.390 111.027  0.00  0.00    -0.090 HD
ATOM     20  H   LIG d   1       1.920  79.199 109.954  0.00  0.00    -0.090 HD
ATOM     21  H   LIG d   1       0.560  78.434 109.455  0.00  0.00    -0.090 HD
ENDBRANCH   5  18
BRANCH   3  22
ATOM     22  C   LIG d   1      -2.544  80.924 112.774  0.00  0.00     0.382 C 
ATOM     23  O   LIG d   1      -2.636  80.123 113.735  0.00  0.00    -0.241 OA
ATOM     24  O   LIG d   1      -3.558  81.532 112.382  0.00  0.00    -0.241 OA
ENDBRANCH   3  22
TORSDOF 7
ENDMDL
MODEL 3
REMARK VINA RESULT:      -5.5      2.127      4.269
REMARK  7 active torsions:
REMARK  status: ('A' for Active; 'I' for Inactive)
REMARK    1  A    between atoms: C_2  and  C_3 
REMARK    2  A    between atoms: C_3  and  O_6 
REMARK    3  A    between atoms: C_3  and  C_4 
REMARK    4  A    between atoms: C_7  and  O_6 
REMARK    5  A    between atoms: C_9  and  C_10 
REMARK    6  A    between atoms: N_15  and  C_14 
REMARK    7  A    between atoms: N_20  and  C_19 
REMARK       I    between atoms: C_22  and  N_20 
ROOT
ATOM      1  C   LIG d   1       0.868  82.380 111.167  0.00  0.00     0.161 C 
ATOM      2  C   LIG d   1       0.098  83.452 111.649  0.00  0.00     0.016 C 
ATOM      3  C   LIG d   1       0.498  84.804 111.550  0.00  0.00     0.038 C 
ATOM      4  C   LIG d   1       1.632  85.190 110.821  0.00  0.00     0.028 C 
ATOM      5  C   LIG d   1       2.704  84.108 110.750  0.00  0.00    -0.047 C 
ATOM      6  C   LIG d   1       2.055  82.790 110.270  0.00  0.00     0.091 C 
ENDROOT
BRANCH   1   7
ATOM      7  O   LIG d   1       0.020  81.441 110.477  0.00  0.00    -0.368 OA
BRANCH   7   8
ATOM      8  C   LIG d   1      -0.076  80.119 111.064  0.00  0.00     0.119 C 
BRANCH   8   9
ATOM      9  C   LIG d   1      -0.288  79.117 109.913  0.00  0.00     0.028 C 
ATOM     10  C   LIG d   1       0.242  79.644 108.570  0.00  0.00     0.006 C 
ENDBRANCH   8   9
BRANCH   8  11
ATOM     11  C   LIG d   1      -1.320  79.991 111.948  0.00  0.00     0.028 C 
ATOM     12  C   LIG d   1      -1.930  78.581 111.918  0.00  0.00     0.006 C 
ENDBRANCH   8  11
ENDBRANCH   7   8
ENDBRANCH   1   7
BRANCH   6  13
ATOM     13  N   LIG d   1       3.017  81.657 110.253  0.00  0.00    -0.311 N 
ATOM     14  C   LIG d   1       3.689  81.281 109.166  0.00  0.00     0.210 C 
ATOM     15  C   LIG d   1       4.615  80.077 109.362  0.00  0.00     0.109 C 
ATOM     16  O   LIG d   1       3.629  81.851 108.066  0.00  0.00    -0.276 OA
ATOM     17  H   LIG d   1       3.150  81.159 111.111  0.00  0.00     0.149 HD
ENDBRANCH   6  13
BRANCH   5  18
ATOM     18  N   LIG d   1       3.767  84.591 109.848  0.00  0.00     0.381 N 
ATOM     19  H   LIG d   1       3.452  85.406 109.360  0.00  0.00    -0.090 HD
ATOM     20  H   LIG d   1       3.969  83.876 109.172  0.00  0.00    -0.090 HD
ATOM     21  H   LIG d   1       4.587  84.805 110.371  0.00  0.00    -0.090 HD
ENDBRANCH   5  18
BRANCH   3  22
ATOM     22  C   LIG d   1      -0.220  85.784 112.219  0.00  0.00     0.382 C 
ATOM     23  O   LIG d   1       0.323  86.441 113.139  0.00  0.00    -0.241 OA
ATOM     24  O   LIG d   1      -1.418  85.989 111.943  0.00  0.00    -0.241 OA
ENDBRANCH   3  22
TORSDOF 7
ENDMDL
MODEL 4
REMARK VINA RESULT:      -5.4      2.879      4.000
REMARK  7 active torsions:
REMARK  status: ('A' for Active; 'I' for Inactive)
REMARK    1  A    between atoms: C_2  and  C_3 
REMARK    2  A    between atoms: C_3  and  O_6 
REMARK    3  A    between atoms: C_3  and  C_4 
REMARK    4  A    between atoms: C_7  and  O_6 
REMARK    5  A    between atoms: C_9  and  C_10 
REMARK    6  A    between atoms: N_15  and  C_14 
REMARK    7  A    between atoms: N_20  and  C_19 
REMARK       I    between atoms: C_22  and  N_20 
ROOT
ATOM      1  C   LIG d   1       3.913  84.961 111.589  0.00  0.00     0.161 C 
ATOM      2  C   LIG d   1       3.743  86.077 112.425  0.00  0.00     0.016 C 
ATOM      3  C   LIG d   1       2.732  87.047 112.234  0.00  0.00     0.038 C 
ATOM      4  C   LIG d   1       1.720  86.883 111.275  0.00  0.00     0.028 C 
ATOM      5  C   LIG d   1       2.146  86.031 110.085  0.00  0.00    -0.047 C 
ATOM      6  C   LIG d   1       2.751  84.708 110.605  0.00  0.00     0.091 C 
ENDROOT
BRANCH   1   7
ATOM      7  O   LIG d   1       4.160  83.787 112.386  0.00  0.00    -0.368 OA
BRANCH   7   8
ATOM      8  C   LIG d   1       3.134  83.443 113.350  0.00  0.00     0.119 C 
BRANCH   8   9
ATOM      9  C   LIG d   1       3.750  83.591 114.755  0.00  0.00     0.028 C 
ATOM     10  C   LIG d   1       3.512  82.352 115.634  0.00  0.00     0.006 C 
ENDBRANCH   8   9
BRANCH   8  11
ATOM     11  C   LIG d   1       2.734  81.969 113.236  0.00  0.00     0.028 C 
ATOM     12  C   LIG d   1       1.402  81.769 112.495  0.00  0.00     0.006 C 
ENDBRANCH   8  11
ENDBRANCH   7   8
ENDBRANCH   1   7
BRANCH   6  13
ATOM     13  N   LIG d   1       3.271  83.851 109.508  0.00  0.00    -0.311 N 
ATOM     14  C   LIG d   1       2.545  82.909 108.907  0.00  0.00     0.210 C 
ATOM     15  C   LIG d   1       3.279  82.127 107.813  0.00  0.00     0.109 C 
ATOM     16  O   LIG d   1       1.354  82.669 109.154  0.00  0.00    -0.276 OA
ATOM     17  H   LIG d   1       4.219  84.000 109.223  0.00  0.00     0.149 HD
ENDBRANCH   6  13
BRANCH   5  18
ATOM     18  N   LIG d   1       0.958  85.828 109.234  0.00  0.00     0.381 N 
ATOM     19  H   LIG d   1       0.132  85.836 109.799  0.00  0.00    -0.090 HD
ATOM     20  H   LIG d   1       1.027  84.931 108.788  0.00  0.00    -0.090 HD
ATOM     21  H   LIG d   1       0.905  86.547 108.545  0.00  0.00    -0.090 HD
ENDBRANCH   5  18
BRANCH   3  22
ATOM     22  C   LIG d   1       2.749  88.215 112.981  0.00  0.00     0.382 C 
ATOM     23  O   LIG d   1       2.452  88.184 114.199  0.00  0.00    -0.241 OA
ATOM     24  O   LIG d   1       3.014  89.306 112.441  0.00  0.00    -0.241 OA
ENDBRANCH   3  22
TORSDOF 7
ENDMDL
MODEL 5
REMARK VINA RESULT:      -5.1      2.466      4.690
REMARK  7 active torsions:
REMARK  status: ('A' for Active; 'I' for Inactive)
REMARK    1  A    between atoms: C_2  and  C_3 
REMARK    2  A    between atoms: C_3  and  O_6 
REMARK    3  A    between atoms: C_3  and  C_4 
REMARK    4  A    between atoms: C_7  and  O_6 
REMARK    5  A    between atoms: C_9  and  C_10 
REMARK    6  A    between atoms: N_15  and  C_14 
REMARK    7  A    between atoms: N_20  and  C_19 
REMARK       I    between atoms: C_22  and  N_20 
ROOT
ATOM      1  C   LIG d   1       1.953  83.561 111.421  0.00  0.00     0.161 C 
ATOM      2  C   LIG d   1       2.199  83.625 110.039  0.00  0.00     0.016 C 
ATOM      3  C   LIG d   1       1.829  82.602 109.135  0.00  0.00     0.038 C 
ATOM      4  C   LIG d   1       1.048  81.507 109.533  0.00  0.00     0.028 C 
ATOM      5  C   LIG d   1       1.211  81.151 111.006  0.00  0.00    -0.047 C 
ATOM      6  C   LIG d   1       1.004  82.425 111.857  0.00  0.00     0.091 C 
ENDROOT
BRANCH   1   7
ATOM      7  O   LIG d   1       1.461  84.832 111.889  0.00  0.00    -0.368 OA
BRANCH   7   8
ATOM      8  C   LIG d   1       1.582  85.942 110.965  0.00  0.00     0.119 C 
BRANCH   8   9
ATOM      9  C   LIG d   1       2.771  86.804 111.430  0.00  0.00     0.028 C 
ATOM     10  C   LIG d   1       2.323  88.145 112.036  0.00  0.00     0.006 C 
ENDBRANCH   8   9
BRANCH   8  11
ATOM     11  C   LIG d   1       0.361  86.862 111.037  0.00  0.00     0.028 C 
ATOM     12  C   LIG d   1      -0.792  86.261 111.857  0.00  0.00     0.006 C 
ENDBRANCH   8  11
ENDBRANCH   7   8
ENDBRANCH   1   7
BRANCH   6  13
ATOM     13  N   LIG d   1       1.229  82.182 113.306  0.00  0.00    -0.311 N 
ATOM     14  C   LIG d   1       2.407  81.828 113.815  0.00  0.00     0.210 C 
ATOM     15  C   LIG d   1       2.416  81.608 115.331  0.00  0.00     0.109 C 
ATOM     16  O   LIG d   1       3.453  81.705 113.160  0.00  0.00    -0.276 OA
ATOM     17  H   LIG d   1       0.441  82.290 113.914  0.00  0.00     0.149 HD
ENDBRANCH   6  13
BRANCH   5  18
ATOM     18  N   LIG d   1       0.241  80.084 111.317  0.00  0.00     0.381 N 
ATOM     19  H   LIG d   1      -0.608  80.241 110.811  0.00  0.00    -0.090 HD
ATOM     20  H   LIG d   1       0.032  80.111 112.299  0.00  0.00    -0.090 HD
ATOM     21  H   LIG d   1       0.621  79.196 111.075  0.00  0.00    -0.090 HD
ENDBRANCH   5  18
BRANCH   3  22
ATOM     22  C   LIG d   1       2.276  82.651 107.823  0.00  0.00     0.382 C 
ATOM     23  O   LIG d   1       3.374  82.128 107.515  0.00  0.00    -0.241 OA
ATOM     24  O   LIG d   1       1.616  83.249 106.952  0.00  0.00    -0.241 OA
ENDBRANCH   3  22
TORSDOF 7
ENDMDL
MODEL 6
REMARK VINA RESULT:      -5.0      5.857      8.222
REMARK  7 active torsions:
REMARK  status: ('A' for Active; 'I' for Inactive)
REMARK    1  A    between atoms: C_2  and  C_3 
REMARK    2  A    between atoms: C_3  and  O_6 
REMARK    3  A    between atoms: C_3  and  C_4 
REMARK    4  A    between atoms: C_7  and  O_6 
REMARK    5  A    between atoms: C_9  and  C_10 
REMARK    6  A    between atoms: N_15  and  C_14 
REMARK    7  A    between atoms: N_20  and  C_19 
REMARK       I    between atoms: C_22  and  N_20 
ROOT
ATOM      1  C   LIG d   1      -1.595  77.715 113.284  0.00  0.00     0.161 C 
ATOM      2  C   LIG d   1      -2.177  78.993 113.253  0.00  0.00     0.016 C 
ATOM      3  C   LIG d   1      -1.961  79.921 112.209  0.00  0.00     0.038 C 
ATOM      4  C   LIG d   1      -1.265  79.575 111.041  0.00  0.00     0.028 C 
ATOM      5  C   LIG d   1      -0.238  78.468 111.254  0.00  0.00    -0.047 C 
ATOM      6  C   LIG d   1      -0.923  77.278 111.965  0.00  0.00     0.091 C 
ENDROOT
BRANCH   1   7
ATOM      7  O   LIG d   1      -2.576  76.741 113.692  0.00  0.00    -0.368 OA
BRANCH   7   8
ATOM      8  C   LIG d   1      -2.667  76.485 115.115  0.00  0.00     0.119 C 
BRANCH   8   9
ATOM      9  C   LIG d   1      -1.297  75.952 115.578  0.00  0.00     0.028 C 
ATOM     10  C   LIG d   1      -1.114  74.457 115.266  0.00  0.00     0.006 C 
ENDBRANCH   8   9
BRANCH   8  11
ATOM     11  C   LIG d   1      -3.663  75.361 115.417  0.00  0.00     0.028 C 
ATOM     12  C   LIG d   1      -5.084  75.881 115.688  0.00  0.00     0.006 C 
ENDBRANCH   8  11
ENDBRANCH   7   8
ENDBRANCH   1   7
BRANCH   6  13
ATOM     13  N   LIG d   1       0.031  76.185 112.287  0.00  0.00    -0.311 N 
ATOM     14  C   LIG d   1       0.447  75.288 111.395  0.00  0.00     0.210 C 
ATOM     15  C   LIG d   1       1.415  74.234 111.940  0.00  0.00     0.109 C 
ATOM     16  O   LIG d   1       0.131  75.285 110.196  0.00  0.00    -0.276 OA
ATOM     17  H   LIG d   1       0.363  76.132 113.231  0.00  0.00     0.149 HD
ENDBRANCH   6  13
BRANCH   5  18
ATOM     18  N   LIG d   1       0.314  78.112 109.933  0.00  0.00     0.381 N 
ATOM     19  H   LIG d   1       0.829  77.257 110.001  0.00  0.00    -0.090 HD
ATOM     20  H   LIG d   1       0.943  78.837 109.637  0.00  0.00    -0.090 HD
ATOM     21  H   LIG d   1      -0.424  78.012 109.271  0.00  0.00    -0.090 HD
ENDBRANCH   5  18
BRANCH   3  22
ATOM     22  C   LIG d   1      -2.412  81.225 112.345  0.00  0.00     0.382 C 
ATOM     23  O   LIG d   1      -3.637  81.454 112.488  0.00  0.00    -0.241 OA
ATOM     24  O   LIG d   1      -1.613  82.179 112.281  0.00  0.00    -0.241 OA
ENDBRANCH   3  22
TORSDOF 7
ENDMDL
MODEL 7
REMARK VINA RESULT:      -4.9     25.060     27.347
REMARK  7 active torsions:
REMARK  status: ('A' for Active; 'I' for Inactive)
REMARK    1  A    between atoms: C_2  and  C_3 
REMARK    2  A    between atoms: C_3  and  O_6 
REMARK    3  A    between atoms: C_3  and  C_4 
REMARK    4  A    between atoms: C_7  and  O_6 
REMARK    5  A    between atoms: C_9  and  C_10 
REMARK    6  A    between atoms: N_15  and  C_14 
REMARK    7  A    between atoms: N_20  and  C_19 
REMARK       I    between atoms: C_22  and  N_20 
ROOT
ATOM      1  C   LIG d   1     -25.667  85.963 112.762  0.00  0.00     0.161 C 
ATOM      2  C   LIG d   1     -24.682  86.882 113.160  0.00  0.00     0.016 C 
ATOM      3  C   LIG d   1     -23.332  86.526 113.389  0.00  0.00     0.038 C 
ATOM      4  C   LIG d   1     -22.842  85.247 113.086  0.00  0.00     0.028 C 
ATOM      5  C   LIG d   1     -23.905  84.156 113.162  0.00  0.00    -0.047 C 
ATOM      6  C   LIG d   1     -25.127  84.587 112.319  0.00  0.00     0.091 C 
ENDROOT
BRANCH   1   7
ATOM      7  O   LIG d   1     -26.481  86.540 111.721  0.00  0.00    -0.368 OA
BRANCH   7   8
ATOM      8  C   LIG d   1     -27.667  87.248 112.159  0.00  0.00     0.119 C 
BRANCH   8   9
ATOM      9  C   LIG d   1     -28.811  86.221 112.252  0.00  0.00     0.028 C 
ATOM     10  C   LIG d   1     -29.606  86.107 110.940  0.00  0.00     0.006 C 
ENDBRANCH   8   9
BRANCH   8  11
ATOM     11  C   LIG d   1     -28.123  88.270 111.113  0.00  0.00     0.028 C 
ATOM     12  C   LIG d   1     -27.102  89.398 110.898  0.00  0.00     0.006 C 
ENDBRANCH   8  11
ENDBRANCH   7   8
ENDBRANCH   1   7
BRANCH   6  13
ATOM     13  N   LIG d   1     -26.248  83.615 112.408  0.00  0.00    -0.311 N 
ATOM     14  C   LIG d   1     -26.921  83.173 111.346  0.00  0.00     0.210 C 
ATOM     15  C   LIG d   1     -28.052  82.190 111.661  0.00  0.00     0.109 C 
ATOM     16  O   LIG d   1     -26.667  83.478 110.171  0.00  0.00    -0.276 OA
ATOM     17  H   LIG d   1     -26.500  83.291 113.321  0.00  0.00     0.149 HD
ENDBRANCH   6  13
BRANCH   5  18
ATOM     18  N   LIG d   1     -23.291  82.901 112.691  0.00  0.00     0.381 N 
ATOM     19  H   LIG d   1     -23.909  82.134 112.867  0.00  0.00    -0.090 HD
ATOM     20  H   LIG d   1     -22.440  82.744 113.201  0.00  0.00    -0.090 HD
ATOM     21  H   LIG d   1     -23.096  82.962 111.715  0.00  0.00    -0.090 HD
ENDBRANCH   5  18
BRANCH   3  22
ATOM     22  C   LIG d   1     -22.467  87.444 113.963  0.00  0.00     0.382 C 
ATOM     23  O   LIG d   1     -22.832  88.108 114.964  0.00  0.00    -0.241 OA
ATOM     24  O   LIG d   1     -21.343  87.649 113.468  0.00  0.00    -0.241 OA
ENDBRANCH   3  22
TORSDOF 7
ENDMDL
MODEL 8
REMARK VINA RESULT:      -4.8      3.360      4.993
REMARK  7 active torsions:
REMARK  status: ('A' for Active; 'I' for Inactive)
REMARK    1  A    between atoms: C_2  and  C_3 
REMARK    2  A    between atoms: C_3  and  O_6 
REMARK    3  A    between atoms: C_3  and  C_4 
REMARK    4  A    between atoms: C_7  and  O_6 
REMARK    5  A    between atoms: C_9  and  C_10 
REMARK    6  A    between atoms: N_15  and  C_14 
REMARK    7  A    between atoms: N_20  and  C_19 
REMARK       I    between atoms: C_22  and  N_20 
ROOT
ATOM      1  C   LIG d   1       2.745  83.815 112.404  0.00  0.00     0.161 C 
ATOM      2  C   LIG d   1       3.683  83.464 113.390  0.00  0.00     0.016 C 
ATOM      3  C   LIG d   1       3.676  84.001 114.697  0.00  0.00     0.038 C 
ATOM      4  C   LIG d   1       2.632  84.818 115.158  0.00  0.00     0.028 C 
ATOM      5  C   LIG d   1       1.939  85.599 114.046  0.00  0.00    -0.047 C 
ATOM      6  C   LIG d   1       1.534  84.619 112.922  0.00  0.00     0.091 C 
ENDROOT
BRANCH   1   7
ATOM      7  O   LIG d   1       2.301  82.633 111.709  0.00  0.00    -0.368 OA
BRANCH   7   8
ATOM      8  C   LIG d   1       2.836  82.438 110.377  0.00  0.00     0.119 C 
BRANCH   8   9
ATOM      9  C   LIG d   1       1.650  82.472 109.393  0.00  0.00     0.028 C 
ATOM     10  C   LIG d   1       1.855  83.494 108.262  0.00  0.00     0.006 C 
ENDBRANCH   8   9
BRANCH   8  11
ATOM     11  C   LIG d   1       3.452  81.045 110.221  0.00  0.00     0.028 C 
ATOM     12  C   LIG d   1       4.770  81.061 109.430  0.00  0.00     0.006 C 
ENDBRANCH   8  11
ENDBRANCH   7   8
ENDBRANCH   1   7
BRANCH   6  13
ATOM     13  N   LIG d   1       0.925  85.313 111.758  0.00  0.00    -0.311 N 
ATOM     14  C   LIG d   1      -0.219  84.931 111.192  0.00  0.00     0.210 C 
ATOM     15  C   LIG d   1      -0.660  85.773 109.991  0.00  0.00     0.109 C 
ATOM     16  O   LIG d   1      -0.927  83.994 111.592  0.00  0.00    -0.276 OA
ATOM     17  H   LIG d   1       1.417  86.103 111.389  0.00  0.00     0.149 HD
ENDBRANCH   6  13
BRANCH   5  18
ATOM     18  N   LIG d   1       0.788  86.300 114.646  0.00  0.00     0.381 N 
ATOM     19  H   LIG d   1       0.179  85.638 115.083  0.00  0.00    -0.090 HD
ATOM     20  H   LIG d   1       0.276  86.766 113.917  0.00  0.00    -0.090 HD
ATOM     21  H   LIG d   1       1.105  86.964 115.317  0.00  0.00    -0.090 HD
ENDBRANCH   5  18
BRANCH   3  22
ATOM     22  C   LIG d   1       4.743  83.754 115.548  0.00  0.00     0.382 C 
ATOM     23  O   LIG d   1       5.077  82.573 115.807  0.00  0.00    -0.241 OA
ATOM     24  O   LIG d   1       5.348  84.697 116.093  0.00  0.00    -0.241 OA
ENDBRANCH   3  22
TORSDOF 7
ENDMDL
MODEL 9
REMARK VINA RESULT:      -4.7      2.762      5.516
REMARK  7 active torsions:
REMARK  status: ('A' for Active; 'I' for Inactive)
REMARK    1  A    between atoms: C_2  and  C_3 
REMARK    2  A    between atoms: C_3  and  O_6 
REMARK    3  A    between atoms: C_3  and  C_4 
REMARK    4  A    between atoms: C_7  and  O_6 
REMARK    5  A    between atoms: C_9  and  C_10 
REMARK    6  A    between atoms: N_15  and  C_14 
REMARK    7  A    between atoms: N_20  and  C_19 
REMARK       I    between atoms: C_22  and  N_20 
ROOT
ATOM      1  C   LIG d   1      -0.181  81.247 111.017  0.00  0.00     0.161 C 
ATOM      2  C   LIG d   1      -0.943  80.314 111.740  0.00  0.00     0.016 C 
ATOM      3  C   LIG d   1      -1.069  78.956 111.367  0.00  0.00     0.038 C 
ATOM      4  C   LIG d   1      -0.314  78.401 110.323  0.00  0.00     0.028 C 
ATOM      5  C   LIG d   1       0.081  79.415 109.255  0.00  0.00    -0.047 C 
ATOM      6  C   LIG d   1       0.738  80.635 109.940  0.00  0.00     0.091 C 
ENDROOT
BRANCH   1   7
ATOM      7  O   LIG d   1       0.585  82.060 111.927  0.00  0.00    -0.368 OA
BRANCH   7   8
ATOM      8  C   LIG d   1       1.569  82.937 111.324  0.00  0.00     0.119 C 
BRANCH   8   9
ATOM      9  C   LIG d   1       2.818  82.921 112.226  0.00  0.00     0.028 C 
ATOM     10  C   LIG d   1       2.696  81.911 113.379  0.00  0.00     0.006 C 
ENDBRANCH   8   9
BRANCH   8  11
ATOM     11  C   LIG d   1       1.090  84.392 111.319  0.00  0.00     0.028 C 
ATOM     12  C   LIG d   1      -0.111  84.627 112.248  0.00  0.00     0.006 C 
ENDBRANCH   8  11
ENDBRANCH   7   8
ENDBRANCH   1   7
BRANCH   6  13
ATOM     13  N   LIG d   1       1.079  81.712 108.974  0.00  0.00    -0.311 N 
ATOM     14  C   LIG d   1       2.238  81.772 108.322  0.00  0.00     0.210 C 
ATOM     15  C   LIG d   1       2.393  82.977 107.388  0.00  0.00     0.109 C 
ATOM     16  O   LIG d   1       3.140  80.925 108.403  0.00  0.00    -0.276 OA
ATOM     17  H   LIG d   1       0.391  82.424 108.824  0.00  0.00     0.149 HD
ENDBRANCH   6  13
BRANCH   5  18
ATOM     18  N   LIG d   1       0.977  78.734 108.302  0.00  0.00     0.381 N 
ATOM     19  H   LIG d   1       1.645  78.181 108.802  0.00  0.00    -0.090 HD
ATOM     20  H   LIG d   1       1.475  79.427 107.772  0.00  0.00    -0.090 HD
ATOM     21  H   LIG d   1       0.447  78.154 107.690  0.00  0.00    -0.090 HD
ENDBRANCH   5  18
BRANCH   3  22
ATOM     22  C   LIG d   1      -1.989  78.147 112.016  0.00  0.00     0.382 C 
ATOM     23  O   LIG d   1      -1.639  77.023 112.451  0.00  0.00    -0.241 OA
ATOM     24  O   LIG d   1      -3.176  78.507 112.133  0.00  0.00    -0.241 OA
ENDBRANCH   3  22
TORSDOF 7
ENDMDL
