MODEL 1
REMARK VINA RESULT:      -6.1      0.000      0.000
REMARK  7 active torsions:
REMARK  status: ('A' for Active; 'I' for Inactive)
REMARK    1  A    between atoms: C_2  and  C_3 
REMARK    2  A    between atoms: C_3  and  O_6 
REMARK    3  A    between atoms: C_3  and  C_4 
REMARK    4  A    between atoms: C_7  and  O_6 
REMARK    5  A    between atoms: C_9  and  C_10 
REMARK    6  A    between atoms: N_15  and  C_14 
REMARK    7  A    between atoms: N_20  and  C_19 
REMARK       I    between atoms: C_22  and  N_20 
ROOT
ATOM      1  C   LIG d   1       1.388  83.173 111.954  0.00  0.00     0.161 C 
ATOM      2  C   LIG d   1       2.454  82.931 111.071  0.00  0.00     0.016 C 
ATOM      3  C   LIG d   1       2.574  81.752 110.300  0.00  0.00     0.038 C 
ATOM      4  C   LIG d   1       1.550  80.795 110.246  0.00  0.00     0.028 C 
ATOM      5  C   LIG d   1       0.689  80.757 111.504  0.00  0.00    -0.047 C 
ATOM      6  C   LIG d   1       0.206  82.190 111.824  0.00  0.00     0.091 C 
ENDROOT
BRANCH   1   7
ATOM      7  O   LIG d   1       0.929  84.531 111.804  0.00  0.00    -0.368 OA
BRANCH   7   8
ATOM      8  C   LIG d   1       1.582  85.315 110.776  0.00  0.00     0.119 C 
BRANCH   8   9
ATOM      9  C   LIG d   1       2.154  86.578 111.449  0.00  0.00     0.028 C 
ATOM     10  C   LIG d   1       3.668  86.474 111.701  0.00  0.00     0.006 C 
ENDBRANCH   8   9
BRANCH   8  11
ATOM     11  C   LIG d   1       0.575  85.828 109.742  0.00  0.00     0.028 C 
ATOM     12  C   LIG d   1      -0.875  85.454 110.087  0.00  0.00     0.006 C 
ENDBRANCH   8  11
ENDBRANCH   7   8
ENDBRANCH   1   7
BRANCH   6  13
ATOM     13  N   LIG d   1      -0.574  82.256 113.088  0.00  0.00    -0.311 N 
ATOM     14  C   LIG d   1      -1.902  82.168 113.135  0.00  0.00     0.210 C 
ATOM     15  C   LIG d   1      -2.508  82.280 114.537  0.00  0.00     0.109 C 
ATOM     16  O   LIG d   1      -2.633  81.975 112.152  0.00  0.00    -0.276 OA
ATOM     17  H   LIG d   1      -0.058  82.380 113.937  0.00  0.00     0.149 HD
ENDBRANCH   6  13
BRANCH   5  18
ATOM     18  N   LIG d   1      -0.420  79.815 111.257  0.00  0.00     0.381 N 
ATOM     19  H   LIG d   1      -1.044  80.198 110.576  0.00  0.00    -0.090 HD
ATOM     20  H   LIG d   1      -0.929  79.682 112.113  0.00  0.00    -0.090 HD
ATOM     21  H   LIG d   1      -0.061  78.943 110.936  0.00  0.00    -0.090 HD
ENDBRANCH   5  18
BRANCH   3  22
ATOM     22  C   LIG d   1       3.746  81.503 109.603  0.00  0.00     0.382 C 
ATOM     23  O   LIG d   1       4.061  80.325 109.306  0.00  0.00    -0.241 OA
ATOM     24  O   LIG d   1       4.515  82.436 109.306  0.00  0.00    -0.241 OA
ENDBRANCH   3  22
TORSDOF 7
ENDMDL
MODEL 2
REMARK VINA RESULT:      -6.0      1.945      4.823
REMARK  7 active torsions:
REMARK  status: ('A' for Active; 'I' for Inactive)
REMARK    1  A    between atoms: C_2  and  C_3 
REMARK    2  A    between atoms: C_3  and  O_6 
REMARK    3  A    between atoms: C_3  and  C_4 
REMARK    4  A    between atoms: C_7  and  O_6 
REMARK    5  A    between atoms: C_9  and  C_10 
REMARK    6  A    between atoms: N_15  and  C_14 
REMARK    7  A    between atoms: N_20  and  C_19 
REMARK       I    between atoms: C_22  and  N_20 
ROOT
ATOM      1  C   LIG d   1       0.234  83.058 112.139  0.00  0.00     0.161 C 
ATOM      2  C   LIG d   1      -0.975  82.644 112.723  0.00  0.00     0.016 C 
ATOM      3  C   LIG d   1      -1.521  81.352 112.547  0.00  0.00     0.038 C 
ATOM      4  C   LIG d   1      -0.815  80.330 111.895  0.00  0.00     0.028 C 
ATOM      5  C   LIG d   1       0.178  80.847 110.860  0.00  0.00    -0.047 C 
ATOM      6  C   LIG d   1       1.073  81.922 111.516  0.00  0.00     0.091 C 
ENDROOT
BRANCH   1   7
ATOM      7  O   LIG d   1       1.018  83.788 113.104  0.00  0.00    -0.368 OA
BRANCH   7   8
ATOM      8  C   LIG d   1       1.280  85.178 112.791  0.00  0.00     0.119 C 
BRANCH   8   9
ATOM      9  C   LIG d   1       1.101  85.987 114.091  0.00  0.00     0.028 C 
ATOM     10  C   LIG d   1      -0.334  85.908 114.638  0.00  0.00     0.006 C 
ENDBRANCH   8   9
BRANCH   8  11
ATOM     11  C   LIG d   1       0.236  85.737 111.820  0.00  0.00     0.028 C 
ATOM     12  C   LIG d   1       0.866  86.438 110.606  0.00  0.00     0.006 C 
ENDBRANCH   8  11
ENDBRANCH   7   8
ENDBRANCH   1   7
BRANCH   6  13
ATOM     13  N   LIG d   1       2.018  82.540 110.549  0.00  0.00    -0.311 N 
ATOM     14  C   LIG d   1       3.280  82.139 110.399  0.00  0.00     0.210 C 
ATOM     15  C   LIG d   1       4.088  82.925 109.362  0.00  0.00     0.109 C 
ATOM     16  O   LIG d   1       3.796  81.186 111.002  0.00  0.00    -0.276 OA
ATOM     17  H   LIG d   1       1.673  83.300 109.996  0.00  0.00     0.149 HD
ENDBRANCH   6  13
BRANCH   5  18
ATOM     18  N   LIG d   1       0.941  79.688 110.357  0.00  0.00     0.381 N 
ATOM     19  H   LIG d   1       1.468  79.280 111.103  0.00  0.00    -0.090 HD
ATOM     20  H   LIG d   1       1.584  80.003 109.652  0.00  0.00    -0.090 HD
ATOM     21  H   LIG d   1       0.319  79.012 109.971  0.00  0.00    -0.090 HD
ENDBRANCH   5  18
BRANCH   3  22
ATOM     22  C   LIG d   1      -2.806  81.083 112.994  0.00  0.00     0.382 C 
ATOM     23  O   LIG d   1      -3.015  80.107 113.754  0.00  0.00    -0.241 OA
ATOM     24  O   LIG d   1      -3.767  81.777 112.610  0.00  0.00    -0.241 OA
ENDBRANCH   3  22
TORSDOF 7
ENDMDL
MODEL 3
REMARK VINA RESULT:      -6.0      2.442      4.679
REMARK  7 active torsions:
REMARK  status: ('A' for Active; 'I' for Inactive)
REMARK    1  A    between atoms: C_2  and  C_3 
REMARK    2  A    between atoms: C_3  and  O_6 
REMARK    3  A    between atoms: C_3  and  C_4 
REMARK    4  A    between atoms: C_7  and  O_6 
REMARK    5  A    between atoms: C_9  and  C_10 
REMARK    6  A    between atoms: N_15  and  C_14 
REMARK    7  A    between atoms: N_20  and  C_19 
REMARK       I    between atoms: C_22  and  N_20 
ROOT
ATOM      1  C   LIG d   1      -0.337  83.773 113.000  0.00  0.00     0.161 C 
ATOM      2  C   LIG d   1       0.398  84.892 112.575  0.00  0.00     0.016 C 
ATOM      3  C   LIG d   1       0.930  85.024 111.271  0.00  0.00     0.038 C 
ATOM      4  C   LIG d   1       0.631  84.108 110.252  0.00  0.00     0.028 C 
ATOM      5  C   LIG d   1       0.313  82.709 110.769  0.00  0.00    -0.047 C 
ATOM      6  C   LIG d   1      -0.768  82.815 111.869  0.00  0.00     0.091 C 
ENDROOT
BRANCH   1   7
ATOM      7  O   LIG d   1      -1.486  84.202 113.757  0.00  0.00    -0.368 OA
BRANCH   7   8
ATOM      8  C   LIG d   1      -1.528  83.783 115.143  0.00  0.00     0.119 C 
BRANCH   8   9
ATOM      9  C   LIG d   1      -3.010  83.626 115.535  0.00  0.00     0.028 C 
ATOM     10  C   LIG d   1      -3.296  82.279 116.221  0.00  0.00     0.006 C 
ENDBRANCH   8   9
BRANCH   8  11
ATOM     11  C   LIG d   1      -0.977  84.870 116.071  0.00  0.00     0.028 C 
ATOM     12  C   LIG d   1      -0.365  84.299 117.360  0.00  0.00     0.006 C 
ENDBRANCH   8  11
ENDBRANCH   7   8
ENDBRANCH   1   7
BRANCH   6  13
ATOM     13  N   LIG d   1      -1.077  81.499 112.489  0.00  0.00    -0.311 N 
ATOM     14  C   LIG d   1      -2.313  81.097 112.778  0.00  0.00     0.210 C 
ATOM     15  C   LIG d   1      -2.408  79.715 113.431  0.00  0.00     0.109 C 
ATOM     16  O   LIG d   1      -3.343  81.741 112.526  0.00  0.00    -0.276 OA
ATOM     17  H   LIG d   1      -0.302  80.900 112.698  0.00  0.00     0.149 HD
ENDBRANCH   6  13
BRANCH   5  18
ATOM     18  N   LIG d   1      -0.113  81.894 109.616  0.00  0.00     0.381 N 
ATOM     19  H   LIG d   1      -0.896  81.326 109.874  0.00  0.00    -0.090 HD
ATOM     20  H   LIG d   1       0.642  81.287 109.350  0.00  0.00    -0.090 HD
ATOM     21  H   LIG d   1      -0.359  82.485 108.853  0.00  0.00    -0.090 HD
ENDBRANCH   5  18
BRANCH   3  22
ATOM     22  C   LIG d   1       1.804  86.063 110.988  0.00  0.00     0.382 C 
ATOM     23  O   LIG d   1       2.989  85.814 110.660  0.00  0.00    -0.241 OA
ATOM     24  O   LIG d   1       1.434  87.247 111.098  0.00  0.00    -0.241 OA
ENDBRANCH   3  22
TORSDOF 7
ENDMDL
MODEL 4
REMARK VINA RESULT:      -5.7      2.991      5.494
REMARK  7 active torsions:
REMARK  status: ('A' for Active; 'I' for Inactive)
REMARK    1  A    between atoms: C_2  and  C_3 
REMARK    2  A    between atoms: C_3  and  O_6 
REMARK    3  A    between atoms: C_3  and  C_4 
REMARK    4  A    between atoms: C_7  and  O_6 
REMARK    5  A    between atoms: C_9  and  C_10 
REMARK    6  A    between atoms: N_15  and  C_14 
REMARK    7  A    between atoms: N_20  and  C_19 
REMARK       I    between atoms: C_22  and  N_20 
ROOT
ATOM      1  C   LIG d   1       1.490  84.500 112.729  0.00  0.00     0.161 C 
ATOM      2  C   LIG d   1       0.442  83.566 112.657  0.00  0.00     0.016 C 
ATOM      3  C   LIG d   1      -0.761  83.689 113.388  0.00  0.00     0.038 C 
ATOM      4  C   LIG d   1      -1.063  84.840 114.132  0.00  0.00     0.028 C 
ATOM      5  C   LIG d   1       0.174  85.576 114.637  0.00  0.00    -0.047 C 
ATOM      6  C   LIG d   1       1.134  85.817 113.449  0.00  0.00     0.091 C 
ENDROOT
BRANCH   1   7
ATOM      7  O   LIG d   1       1.995  84.772 111.407  0.00  0.00    -0.368 OA
BRANCH   7   8
ATOM      8  C   LIG d   1       1.157  84.345 110.305  0.00  0.00     0.119 C 
BRANCH   8   9
ATOM      9  C   LIG d   1       2.054  83.588 109.307  0.00  0.00     0.028 C 
ATOM     10  C   LIG d   1       3.543  83.656 109.688  0.00  0.00     0.006 C 
ENDBRANCH   8   9
BRANCH   8  11
ATOM     11  C   LIG d   1       0.607  85.544 109.526  0.00  0.00     0.028 C 
ATOM     12  C   LIG d   1      -0.870  85.832 109.840  0.00  0.00     0.006 C 
ENDBRANCH   8  11
ENDBRANCH   7   8
ENDBRANCH   1   7
BRANCH   6  13
ATOM     13  N   LIG d   1       2.407  86.458 113.871  0.00  0.00    -0.311 N 
ATOM     14  C   LIG d   1       2.963  87.479 113.222  0.00  0.00     0.210 C 
ATOM     15  C   LIG d   1       4.286  87.977 113.813  0.00  0.00     0.109 C 
ATOM     16  O   LIG d   1       2.471  88.041 112.233  0.00  0.00    -0.276 OA
ATOM     17  H   LIG d   1       2.858  86.084 114.683  0.00  0.00     0.149 HD
ENDBRANCH   6  13
BRANCH   5  18
ATOM     18  N   LIG d   1      -0.281  86.826 115.275  0.00  0.00     0.381 N 
ATOM     19  H   LIG d   1       0.505  87.327 115.636  0.00  0.00    -0.090 HD
ATOM     20  H   LIG d   1      -0.889  86.597 116.042  0.00  0.00    -0.090 HD
ATOM     21  H   LIG d   1      -0.768  87.389 114.613  0.00  0.00    -0.090 HD
ENDBRANCH   5  18
BRANCH   3  22
ATOM     22  C   LIG d   1      -1.662  82.635 113.412  0.00  0.00     0.382 C 
ATOM     23  O   LIG d   1      -2.314  82.344 112.380  0.00  0.00    -0.241 OA
ATOM     24  O   LIG d   1      -1.863  82.000 114.464  0.00  0.00    -0.241 OA
ENDBRANCH   3  22
TORSDOF 7
ENDMDL
MODEL 5
REMARK VINA RESULT:      -5.6      2.883      5.049
REMARK  7 active torsions:
REMARK  status: ('A' for Active; 'I' for Inactive)
REMARK    1  A    between atoms: C_2  and  C_3 
REMARK    2  A    between atoms: C_3  and  O_6 
REMARK    3  A    between atoms: C_3  and  C_4 
REMARK    4  A    between atoms: C_7  and  O_6 
REMARK    5  A    between atoms: C_9  and  C_10 
REMARK    6  A    between atoms: N_15  and  C_14 
REMARK    7  A    between atoms: N_20  and  C_19 
REMARK       I    between atoms: C_22  and  N_20 
ROOT
ATOM      1  C   LIG d   1       1.268  85.480 112.734  0.00  0.00     0.161 C 
ATOM      2  C   LIG d   1       1.950  86.670 112.428  0.00  0.00     0.016 C 
ATOM      3  C   LIG d   1       3.210  87.007 112.972  0.00  0.00     0.038 C 
ATOM      4  C   LIG d   1       3.949  86.101 113.748  0.00  0.00     0.028 C 
ATOM      5  C   LIG d   1       3.080  85.094 114.494  0.00  0.00    -0.047 C 
ATOM      6  C   LIG d   1       2.108  84.431 113.492  0.00  0.00     0.091 C 
ENDROOT
BRANCH   1   7
ATOM      7  O   LIG d   1       0.718  84.909 111.531  0.00  0.00    -0.368 OA
BRANCH   7   8
ATOM      8  C   LIG d   1       1.341  85.318 110.288  0.00  0.00     0.119 C 
BRANCH   8   9
ATOM      9  C   LIG d   1       0.213  85.688 109.306  0.00  0.00     0.028 C 
ATOM     10  C   LIG d   1      -1.111  86.003 110.023  0.00  0.00     0.006 C 
ENDBRANCH   8   9
BRANCH   8  11
ATOM     11  C   LIG d   1       2.086  84.154 109.629  0.00  0.00     0.028 C 
ATOM     12  C   LIG d   1       3.572  84.101 110.018  0.00  0.00     0.006 C 
ENDBRANCH   8  11
ENDBRANCH   7   8
ENDBRANCH   1   7
BRANCH   6  13
ATOM     13  N   LIG d   1       1.164  83.492 114.154  0.00  0.00    -0.311 N 
ATOM     14  C   LIG d   1       1.284  82.167 114.092  0.00  0.00     0.210 C 
ATOM     15  C   LIG d   1       0.192  81.385 114.828  0.00  0.00     0.109 C 
ATOM     16  O   LIG d   1       2.208  81.566 113.525  0.00  0.00    -0.276 OA
ATOM     17  H   LIG d   1       0.401  83.896 114.662  0.00  0.00     0.149 HD
ENDBRANCH   6  13
BRANCH   5  18
ATOM     18  N   LIG d   1       3.981  84.128 115.151  0.00  0.00     0.381 N 
ATOM     19  H   LIG d   1       4.331  84.517 116.004  0.00  0.00    -0.090 HD
ATOM     20  H   LIG d   1       4.761  83.946 114.544  0.00  0.00    -0.090 HD
ATOM     21  H   LIG d   1       3.493  83.280 115.339  0.00  0.00    -0.090 HD
ENDBRANCH   5  18
BRANCH   3  22
ATOM     22  C   LIG d   1       3.727  88.278 112.774  0.00  0.00     0.382 C 
ATOM     23  O   LIG d   1       2.952  89.254 112.626  0.00  0.00    -0.241 OA
ATOM     24  O   LIG d   1       4.958  88.455 112.696  0.00  0.00    -0.241 OA
ENDBRANCH   3  22
TORSDOF 7
ENDMDL
MODEL 6
REMARK VINA RESULT:      -5.5     22.586     25.859
REMARK  7 active torsions:
REMARK  status: ('A' for Active; 'I' for Inactive)
REMARK    1  A    between atoms: C_2  and  C_3 
REMARK    2  A    between atoms: C_3  and  O_6 
REMARK    3  A    between atoms: C_3  and  C_4 
REMARK    4  A    between atoms: C_7  and  O_6 
REMARK    5  A    between atoms: C_9  and  C_10 
REMARK    6  A    between atoms: N_15  and  C_14 
REMARK    7  A    between atoms: N_20  and  C_19 
REMARK       I    between atoms: C_22  and  N_20 
ROOT
ATOM      1  C   LIG d   1     -16.662  64.896 113.577  0.00  0.00     0.161 C 
ATOM      2  C   LIG d   1     -16.207  65.811 112.613  0.00  0.00     0.016 C 
ATOM      3  C   LIG d   1     -15.526  67.007 112.936  0.00  0.00     0.038 C 
ATOM      4  C   LIG d   1     -15.119  67.298 114.246  0.00  0.00     0.028 C 
ATOM      5  C   LIG d   1     -15.997  66.651 115.311  0.00  0.00    -0.047 C 
ATOM      6  C   LIG d   1     -16.129  65.142 115.004  0.00  0.00     0.091 C 
ENDROOT
BRANCH   1   7
ATOM      7  O   LIG d   1     -16.362  63.551 113.155  0.00  0.00    -0.368 OA
BRANCH   7   8
ATOM      8  C   LIG d   1     -17.501  62.706 112.861  0.00  0.00     0.119 C 
BRANCH   8   9
ATOM      9  C   LIG d   1     -18.760  63.593 112.910  0.00  0.00     0.028 C 
ATOM     10  C   LIG d   1     -19.952  62.962 112.171  0.00  0.00     0.006 C 
ENDBRANCH   8   9
BRANCH   8  11
ATOM     11  C   LIG d   1     -17.707  61.649 113.950  0.00  0.00     0.028 C 
ATOM     12  C   LIG d   1     -17.713  60.216 113.395  0.00  0.00     0.006 C 
ENDBRANCH   8  11
ENDBRANCH   7   8
ENDBRANCH   1   7
BRANCH   6  13
ATOM     13  N   LIG d   1     -17.041  64.449 115.951  0.00  0.00    -0.311 N 
ATOM     14  C   LIG d   1     -16.626  63.559 116.850  0.00  0.00     0.210 C 
ATOM     15  C   LIG d   1     -17.733  62.947 117.714  0.00  0.00     0.109 C 
ATOM     16  O   LIG d   1     -15.441  63.242 117.037  0.00  0.00    -0.276 OA
ATOM     17  H   LIG d   1     -18.016  64.670 115.889  0.00  0.00     0.149 HD
ENDBRANCH   6  13
BRANCH   5  18
ATOM     18  N   LIG d   1     -15.380  66.923 116.623  0.00  0.00     0.381 N 
ATOM     19  H   LIG d   1     -14.422  66.636 116.613  0.00  0.00    -0.090 HD
ATOM     20  H   LIG d   1     -15.862  66.389 117.326  0.00  0.00    -0.090 HD
ATOM     21  H   LIG d   1     -15.441  67.895 116.834  0.00  0.00    -0.090 HD
ENDBRANCH   5  18
BRANCH   3  22
ATOM     22  C   LIG d   1     -15.281  67.947 111.946  0.00  0.00     0.382 C 
ATOM     23  O   LIG d   1     -14.952  69.116 112.259  0.00  0.00    -0.241 OA
ATOM     24  O   LIG d   1     -15.429  67.652 110.745  0.00  0.00    -0.241 OA
ENDBRANCH   3  22
TORSDOF 7
ENDMDL
MODEL 7
REMARK VINA RESULT:      -5.5      2.681      5.714
REMARK  7 active torsions:
REMARK  status: ('A' for Active; 'I' for Inactive)
REMARK    1  A    between atoms: C_2  and  C_3 
REMARK    2  A    between atoms: C_3  and  O_6 
REMARK    3  A    between atoms: C_3  and  C_4 
REMARK    4  A    between atoms: C_7  and  O_6 
REMARK    5  A    between atoms: C_9  and  C_10 
REMARK    6  A    between atoms: N_15  and  C_14 
REMARK    7  A    between atoms: N_20  and  C_19 
REMARK       I    between atoms: C_22  and  N_20 
ROOT
ATOM      1  C   LIG d   1       0.559  83.438 112.328  0.00  0.00     0.161 C 
ATOM      2  C   LIG d   1      -0.529  82.709 112.835  0.00  0.00     0.016 C 
ATOM      3  C   LIG d   1      -1.351  83.169 113.890  0.00  0.00     0.038 C 
ATOM      4  C   LIG d   1      -1.231  84.466 114.412  0.00  0.00     0.028 C 
ATOM      5  C   LIG d   1       0.174  85.045 114.277  0.00  0.00    -0.047 C 
ATOM      6  C   LIG d   1       0.637  84.902 112.809  0.00  0.00     0.091 C 
ENDROOT
BRANCH   1   7
ATOM      7  O   LIG d   1       0.555  83.384 110.888  0.00  0.00    -0.368 OA
BRANCH   7   8
ATOM      8  C   LIG d   1       1.557  82.532 110.280  0.00  0.00     0.119 C 
BRANCH   8   9
ATOM      9  C   LIG d   1       2.374  83.402 109.305  0.00  0.00     0.028 C 
ATOM     10  C   LIG d   1       3.878  83.387 109.625  0.00  0.00     0.006 C 
ENDBRANCH   8   9
BRANCH   8  11
ATOM     11  C   LIG d   1       0.913  81.446 109.412  0.00  0.00     0.028 C 
ATOM     12  C   LIG d   1       1.507  80.052 109.665  0.00  0.00     0.006 C 
ENDBRANCH   8  11
ENDBRANCH   7   8
ENDBRANCH   1   7
BRANCH   6  13
ATOM     13  N   LIG d   1       2.034  85.368 112.608  0.00  0.00    -0.311 N 
ATOM     14  C   LIG d   1       2.363  86.365 111.788  0.00  0.00     0.210 C 
ATOM     15  C   LIG d   1       3.862  86.672 111.713  0.00  0.00     0.109 C 
ATOM     16  O   LIG d   1       1.553  87.046 111.141  0.00  0.00    -0.276 OA
ATOM     17  H   LIG d   1       2.751  84.892 113.118  0.00  0.00     0.149 HD
ENDBRANCH   6  13
BRANCH   5  18
ATOM     18  N   LIG d   1       0.123  86.447 114.733  0.00  0.00     0.381 N 
ATOM     19  H   LIG d   1       0.957  86.669 115.240  0.00  0.00    -0.090 HD
ATOM     20  H   LIG d   1      -0.661  86.559 115.352  0.00  0.00    -0.090 HD
ATOM     21  H   LIG d   1       0.028  87.057 113.951  0.00  0.00    -0.090 HD
ENDBRANCH   5  18
BRANCH   3  22
ATOM     22  C   LIG d   1      -2.280  82.313 114.462  0.00  0.00     0.382 C 
ATOM     23  O   LIG d   1      -1.895  81.362 115.184  0.00  0.00    -0.241 OA
ATOM     24  O   LIG d   1      -3.495  82.453 114.228  0.00  0.00    -0.241 OA
ENDBRANCH   3  22
TORSDOF 7
ENDMDL
MODEL 8
REMARK VINA RESULT:      -5.5      2.941      5.283
REMARK  7 active torsions:
REMARK  status: ('A' for Active; 'I' for Inactive)
REMARK    1  A    between atoms: C_2  and  C_3 
REMARK    2  A    between atoms: C_3  and  O_6 
REMARK    3  A    between atoms: C_3  and  C_4 
REMARK    4  A    between atoms: C_7  and  O_6 
REMARK    5  A    between atoms: C_9  and  C_10 
REMARK    6  A    between atoms: N_15  and  C_14 
REMARK    7  A    between atoms: N_20  and  C_19 
REMARK       I    between atoms: C_22  and  N_20 
ROOT
ATOM      1  C   LIG d   1       3.138  84.289 112.014  0.00  0.00     0.161 C 
ATOM      2  C   LIG d   1       3.564  85.538 112.498  0.00  0.00     0.016 C 
ATOM      3  C   LIG d   1       2.957  86.762 112.132  0.00  0.00     0.038 C 
ATOM      4  C   LIG d   1       1.779  86.807 111.371  0.00  0.00     0.028 C 
ATOM      5  C   LIG d   1       1.608  85.606 110.447  0.00  0.00    -0.047 C 
ATOM      6  C   LIG d   1       1.786  84.310 111.271  0.00  0.00     0.091 C 
ENDROOT
BRANCH   1   7
ATOM      7  O   LIG d   1       3.102  83.334 113.092  0.00  0.00    -0.368 OA
BRANCH   7   8
ATOM      8  C   LIG d   1       2.194  83.635 114.181  0.00  0.00     0.119 C 
BRANCH   8   9
ATOM      9  C   LIG d   1       2.997  83.541 115.493  0.00  0.00     0.028 C 
ATOM     10  C   LIG d   1       2.091  83.379 116.725  0.00  0.00     0.006 C 
ENDBRANCH   8   9
BRANCH   8  11
ATOM     11  C   LIG d   1       1.097  82.574 114.300  0.00  0.00     0.028 C 
ATOM     12  C   LIG d   1       1.480  81.242 113.634  0.00  0.00     0.006 C 
ENDBRANCH   8  11
ENDBRANCH   7   8
ENDBRANCH   1   7
BRANCH   6  13
ATOM     13  N   LIG d   1       1.718  83.089 110.427  0.00  0.00    -0.311 N 
ATOM     14  C   LIG d   1       0.601  82.388 110.239  0.00  0.00     0.210 C 
ATOM     15  C   LIG d   1       0.754  81.151 109.349  0.00  0.00     0.109 C 
ATOM     16  O   LIG d   1      -0.510  82.692 110.700  0.00  0.00    -0.276 OA
ATOM     17  H   LIG d   1       2.567  82.788 109.989  0.00  0.00     0.149 HD
ENDBRANCH   6  13
BRANCH   5  18
ATOM     18  N   LIG d   1       0.279  85.714 109.818  0.00  0.00     0.381 N 
ATOM     19  H   LIG d   1       0.205  86.582 109.327  0.00  0.00    -0.090 HD
ATOM     20  H   LIG d   1      -0.423  85.698 110.537  0.00  0.00    -0.090 HD
ATOM     21  H   LIG d   1       0.137  84.955 109.188  0.00  0.00    -0.090 HD
ENDBRANCH   5  18
BRANCH   3  22
ATOM     22  C   LIG d   1       3.552  87.960 112.497  0.00  0.00     0.382 C 
ATOM     23  O   LIG d   1       2.843  88.973 112.709  0.00  0.00    -0.241 OA
ATOM     24  O   LIG d   1       4.792  88.051 112.574  0.00  0.00    -0.241 OA
ENDBRANCH   3  22
TORSDOF 7
ENDMDL
MODEL 9
REMARK VINA RESULT:      -5.4      2.405      4.754
REMARK  7 active torsions:
REMARK  status: ('A' for Active; 'I' for Inactive)
REMARK    1  A    between atoms: C_2  and  C_3 
REMARK    2  A    between atoms: C_3  and  O_6 
REMARK    3  A    between atoms: C_3  and  C_4 
REMARK    4  A    between atoms: C_7  and  O_6 
REMARK    5  A    between atoms: C_9  and  C_10 
REMARK    6  A    between atoms: N_15  and  C_14 
REMARK    7  A    between atoms: N_20  and  C_19 
REMARK       I    between atoms: C_22  and  N_20 
ROOT
ATOM      1  C   LIG d   1       1.215  85.281 111.449  0.00  0.00     0.161 C 
ATOM      2  C   LIG d   1       2.154  86.325 111.485  0.00  0.00     0.016 C 
ATOM      3  C   LIG d   1       2.693  86.845 112.684  0.00  0.00     0.038 C 
ATOM      4  C   LIG d   1       2.441  86.251 113.930  0.00  0.00     0.028 C 
ATOM      5  C   LIG d   1       1.106  85.515 113.991  0.00  0.00    -0.047 C 
ATOM      6  C   LIG d   1       1.012  84.546 112.790  0.00  0.00     0.091 C 
ENDROOT
BRANCH   1   7
ATOM      7  O   LIG d   1       1.567  84.343 110.412  0.00  0.00    -0.368 OA
BRANCH   7   8
ATOM      8  C   LIG d   1       2.603  83.385 110.744  0.00  0.00     0.119 C 
BRANCH   8   9
ATOM      9  C   LIG d   1       3.780  83.623 109.779  0.00  0.00     0.028 C 
ATOM     10  C   LIG d   1       4.425  82.310 109.305  0.00  0.00     0.006 C 
ENDBRANCH   8   9
BRANCH   8  11
ATOM     11  C   LIG d   1       2.141  81.950 110.475  0.00  0.00     0.028 C 
ATOM     12  C   LIG d   1       0.752  81.883 109.821  0.00  0.00     0.006 C 
ENDBRANCH   8  11
ENDBRANCH   7   8
ENDBRANCH   1   7
BRANCH   6  13
ATOM     13  N   LIG d   1      -0.298  83.847 112.727  0.00  0.00    -0.311 N 
ATOM     14  C   LIG d   1      -0.498  82.620 113.205  0.00  0.00     0.210 C 
ATOM     15  C   LIG d   1      -1.919  82.079 113.020  0.00  0.00     0.109 C 
ATOM     16  O   LIG d   1       0.357  81.942 113.794  0.00  0.00    -0.276 OA
ATOM     17  H   LIG d   1      -1.056  84.338 112.294  0.00  0.00     0.149 HD
ENDBRANCH   6  13
BRANCH   5  18
ATOM     18  N   LIG d   1       1.034  84.830 115.295  0.00  0.00     0.381 N 
ATOM     19  H   LIG d   1       0.738  85.474 116.000  0.00  0.00    -0.090 HD
ATOM     20  H   LIG d   1       1.951  84.496 115.538  0.00  0.00    -0.090 HD
ATOM     21  H   LIG d   1       0.398  84.065 115.244  0.00  0.00    -0.090 HD
ENDBRANCH   5  18
BRANCH   3  22
ATOM     22  C   LIG d   1       3.463  87.998 112.649  0.00  0.00     0.382 C 
ATOM     23  O   LIG d   1       2.909  89.123 112.691  0.00  0.00    -0.241 OA
ATOM     24  O   LIG d   1       4.701  87.927 112.530  0.00  0.00    -0.241 OA
ENDBRANCH   3  22
TORSDOF 7
ENDMDL
