MODEL 1
REMARK VINA RESULT:      -5.9      0.000      0.000
REMARK  7 active torsions:
REMARK  status: ('A' for Active; 'I' for Inactive)
REMARK    1  A    between atoms: C_2  and  C_3 
REMARK    2  A    between atoms: C_3  and  O_6 
REMARK    3  A    between atoms: C_3  and  C_4 
REMARK    4  A    between atoms: C_7  and  O_6 
REMARK    5  A    between atoms: C_9  and  C_10 
REMARK    6  A    between atoms: N_15  and  C_14 
REMARK    7  A    between atoms: N_20  and  C_19 
REMARK       I    between atoms: C_22  and  N_20 
ROOT
ATOM      1  C   LIG d   1      -5.873  92.669 117.330  0.00  0.00     0.161 C 
ATOM      2  C   LIG d   1      -6.939  91.859 116.903  0.00  0.00     0.016 C 
ATOM      3  C   LIG d   1      -6.784  90.508 116.516  0.00  0.00     0.038 C 
ATOM      4  C   LIG d   1      -5.568  89.826 116.676  0.00  0.00     0.028 C 
ATOM      5  C   LIG d   1      -4.349  90.742 116.627  0.00  0.00    -0.047 C 
ATOM      6  C   LIG d   1      -4.560  91.911 117.616  0.00  0.00     0.091 C 
ENDROOT
BRANCH   1   7
ATOM      7  O   LIG d   1      -6.272  93.433 118.485  0.00  0.00    -0.368 OA
BRANCH   7   8
ATOM      8  C   LIG d   1      -6.615  94.820 118.244  0.00  0.00     0.119 C 
BRANCH   8   9
ATOM      9  C   LIG d   1      -6.044  95.647 119.412  0.00  0.00     0.028 C 
ATOM     10  C   LIG d   1      -5.028  94.854 120.252  0.00  0.00     0.006 C 
ENDBRANCH   8   9
BRANCH   8  11
ATOM     11  C   LIG d   1      -8.130  95.037 118.297  0.00  0.00     0.028 C 
ATOM     12  C   LIG d   1      -8.842  94.041 119.226  0.00  0.00     0.006 C 
ENDBRANCH   8  11
ENDBRANCH   7   8
ENDBRANCH   1   7
BRANCH   6  13
ATOM     13  N   LIG d   1      -3.451  92.899 117.570  0.00  0.00    -0.311 N 
ATOM     14  C   LIG d   1      -2.402  92.863 118.390  0.00  0.00     0.210 C 
ATOM     15  C   LIG d   1      -1.382  93.988 118.186  0.00  0.00     0.109 C 
ATOM     16  O   LIG d   1      -2.203  91.987 119.245  0.00  0.00    -0.276 OA
ATOM     17  H   LIG d   1      -3.516  93.626 116.884  0.00  0.00     0.149 HD
ENDBRANCH   6  13
BRANCH   5  18
ATOM     18  N   LIG d   1      -3.164  89.923 116.943  0.00  0.00     0.381 N 
ATOM     19  H   LIG d   1      -2.863  89.432 116.124  0.00  0.00    -0.090 HD
ATOM     20  H   LIG d   1      -3.414  89.245 117.642  0.00  0.00    -0.090 HD
ATOM     21  H   LIG d   1      -2.428  90.503 117.281  0.00  0.00    -0.090 HD
ENDBRANCH   5  18
BRANCH   3  22
ATOM     22  C   LIG d   1      -7.843  89.837 115.926  0.00  0.00     0.382 C 
ATOM     23  O   LIG d   1      -8.318  90.246 114.839  0.00  0.00    -0.241 OA
ATOM     24  O   LIG d   1      -8.360  88.853 116.489  0.00  0.00    -0.241 OA
ENDBRANCH   3  22
TORSDOF 7
ENDMDL
MODEL 2
REMARK VINA RESULT:      -5.6     14.821     17.133
REMARK  7 active torsions:
REMARK  status: ('A' for Active; 'I' for Inactive)
REMARK    1  A    between atoms: C_2  and  C_3 
REMARK    2  A    between atoms: C_3  and  O_6 
REMARK    3  A    between atoms: C_3  and  C_4 
REMARK    4  A    between atoms: C_7  and  O_6 
REMARK    5  A    between atoms: C_9  and  C_10 
REMARK    6  A    between atoms: N_15  and  C_14 
REMARK    7  A    between atoms: N_20  and  C_19 
REMARK       I    between atoms: C_22  and  N_20 
ROOT
ATOM      1  C   LIG d   1      -2.119  75.697 115.163  0.00  0.00     0.161 C 
ATOM      2  C   LIG d   1      -2.039  74.854 116.284  0.00  0.00     0.016 C 
ATOM      3  C   LIG d   1      -1.334  75.192 117.462  0.00  0.00     0.038 C 
ATOM      4  C   LIG d   1      -0.784  76.468 117.657  0.00  0.00     0.028 C 
ATOM      5  C   LIG d   1      -0.407  77.170 116.357  0.00  0.00    -0.047 C 
ATOM      6  C   LIG d   1      -1.619  77.137 115.399  0.00  0.00     0.091 C 
ENDROOT
BRANCH   1   7
ATOM      7  O   LIG d   1      -3.469  75.711 114.658  0.00  0.00    -0.368 OA
BRANCH   7   8
ATOM      8  C   LIG d   1      -4.487  75.186 115.545  0.00  0.00     0.119 C 
BRANCH   8   9
ATOM      9  C   LIG d   1      -5.384  74.247 114.716  0.00  0.00     0.028 C 
ATOM     10  C   LIG d   1      -6.278  73.359 115.598  0.00  0.00     0.006 C 
ENDBRANCH   8   9
BRANCH   8  11
ATOM     11  C   LIG d   1      -5.415  76.296 116.047  0.00  0.00     0.028 C 
ATOM     12  C   LIG d   1      -4.870  77.011 117.293  0.00  0.00     0.006 C 
ENDBRANCH   8  11
ENDBRANCH   7   8
ENDBRANCH   1   7
BRANCH   6  13
ATOM     13  N   LIG d   1      -1.309  77.729 114.071  0.00  0.00    -0.311 N 
ATOM     14  C   LIG d   1      -2.016  78.717 113.526  0.00  0.00     0.210 C 
ATOM     15  C   LIG d   1      -1.538  79.166 112.141  0.00  0.00     0.109 C 
ATOM     16  O   LIG d   1      -2.974  79.286 114.070  0.00  0.00    -0.276 OA
ATOM     17  H   LIG d   1      -0.528  77.348 113.574  0.00  0.00     0.149 HD
ENDBRANCH   6  13
BRANCH   5  18
ATOM     18  N   LIG d   1       0.024  78.539 116.699  0.00  0.00     0.381 N 
ATOM     19  H   LIG d   1       0.398  78.989 115.887  0.00  0.00    -0.090 HD
ATOM     20  H   LIG d   1       0.748  78.488 117.393  0.00  0.00    -0.090 HD
ATOM     21  H   LIG d   1      -0.748  79.061 117.051  0.00  0.00    -0.090 HD
ENDBRANCH   5  18
BRANCH   3  22
ATOM     22  C   LIG d   1      -1.139  74.234 118.445  0.00  0.00     0.382 C 
ATOM     23  O   LIG d   1      -0.179  74.343 119.245  0.00  0.00    -0.241 OA
ATOM     24  O   LIG d   1      -1.886  73.239 118.514  0.00  0.00    -0.241 OA
ENDBRANCH   3  22
TORSDOF 7
ENDMDL
MODEL 3
REMARK VINA RESULT:      -5.1     14.515     16.539
REMARK  7 active torsions:
REMARK  status: ('A' for Active; 'I' for Inactive)
REMARK    1  A    between atoms: C_2  and  C_3 
REMARK    2  A    between atoms: C_3  and  O_6 
REMARK    3  A    between atoms: C_3  and  C_4 
REMARK    4  A    between atoms: C_7  and  O_6 
REMARK    5  A    between atoms: C_9  and  C_10 
REMARK    6  A    between atoms: N_15  and  C_14 
REMARK    7  A    between atoms: N_20  and  C_19 
REMARK       I    between atoms: C_22  and  N_20 
ROOT
ATOM      1  C   LIG d   1      -2.981  76.986 117.313  0.00  0.00     0.161 C 
ATOM      2  C   LIG d   1      -3.041  77.581 116.041  0.00  0.00     0.016 C 
ATOM      3  C   LIG d   1      -2.315  77.106 114.925  0.00  0.00     0.038 C 
ATOM      4  C   LIG d   1      -1.592  75.905 114.967  0.00  0.00     0.028 C 
ATOM      5  C   LIG d   1      -1.096  75.545 116.364  0.00  0.00    -0.047 C 
ATOM      6  C   LIG d   1      -2.284  75.610 117.350  0.00  0.00     0.091 C 
ENDROOT
BRANCH   1   7
ATOM      7  O   LIG d   1      -4.306  76.892 117.871  0.00  0.00    -0.368 OA
BRANCH   7   8
ATOM      8  C   LIG d   1      -5.369  77.500 117.097  0.00  0.00     0.119 C 
BRANCH   8   9
ATOM      9  C   LIG d   1      -6.036  78.568 117.985  0.00  0.00     0.028 C 
ATOM     10  C   LIG d   1      -5.831  78.296 119.485  0.00  0.00     0.006 C 
ENDBRANCH   8   9
BRANCH   8  11
ATOM     11  C   LIG d   1      -6.475  76.489 116.778  0.00  0.00     0.028 C 
ATOM     12  C   LIG d   1      -6.043  75.442 115.739  0.00  0.00     0.006 C 
ENDBRANCH   8  11
ENDBRANCH   7   8
ENDBRANCH   1   7
BRANCH   6  13
ATOM     13  N   LIG d   1      -1.870  75.354 118.754  0.00  0.00    -0.311 N 
ATOM     14  C   LIG d   1      -1.737  74.132 119.269  0.00  0.00     0.210 C 
ATOM     15  C   LIG d   1      -1.320  74.093 120.742  0.00  0.00     0.109 C 
ATOM     16  O   LIG d   1      -1.895  73.078 118.635  0.00  0.00    -0.276 OA
ATOM     17  H   LIG d   1      -1.691  76.153 119.330  0.00  0.00     0.149 HD
ENDBRANCH   6  13
BRANCH   5  18
ATOM     18  N   LIG d   1      -0.480  74.207 116.287  0.00  0.00     0.381 N 
ATOM     19  H   LIG d   1      -0.105  74.059 115.371  0.00  0.00    -0.090 HD
ATOM     20  H   LIG d   1      -1.187  73.514 116.455  0.00  0.00    -0.090 HD
ATOM     21  H   LIG d   1       0.244  74.126 116.967  0.00  0.00    -0.090 HD
ENDBRANCH   5  18
BRANCH   3  22
ATOM     22  C   LIG d   1      -2.277  77.857 113.760  0.00  0.00     0.382 C 
ATOM     23  O   LIG d   1      -2.618  79.065 113.781  0.00  0.00    -0.241 OA
ATOM     24  O   LIG d   1      -1.948  77.332 112.680  0.00  0.00    -0.241 OA
ENDBRANCH   3  22
TORSDOF 7
ENDMDL
MODEL 4
REMARK VINA RESULT:      -5.0      1.793      4.750
REMARK  7 active torsions:
REMARK  status: ('A' for Active; 'I' for Inactive)
REMARK    1  A    between atoms: C_2  and  C_3 
REMARK    2  A    between atoms: C_3  and  O_6 
REMARK    3  A    between atoms: C_3  and  C_4 
REMARK    4  A    between atoms: C_7  and  O_6 
REMARK    5  A    between atoms: C_9  and  C_10 
REMARK    6  A    between atoms: N_15  and  C_14 
REMARK    7  A    between atoms: N_20  and  C_19 
REMARK       I    between atoms: C_22  and  N_20 
ROOT
ATOM      1  C   LIG d   1      -5.933  92.451 117.951  0.00  0.00     0.161 C 
ATOM      2  C   LIG d   1      -7.111  93.217 117.957  0.00  0.00     0.016 C 
ATOM      3  C   LIG d   1      -7.159  94.568 118.372  0.00  0.00     0.038 C 
ATOM      4  C   LIG d   1      -5.996  95.294 118.668  0.00  0.00     0.028 C 
ATOM      5  C   LIG d   1      -4.846  94.422 119.160  0.00  0.00    -0.047 C 
ATOM      6  C   LIG d   1      -4.636  93.259 118.164  0.00  0.00     0.091 C 
ENDROOT
BRANCH   1   7
ATOM      7  O   LIG d   1      -5.853  91.688 116.731  0.00  0.00    -0.368 OA
BRANCH   7   8
ATOM      8  C   LIG d   1      -6.145  90.273 116.843  0.00  0.00     0.119 C 
BRANCH   8   9
ATOM      9  C   LIG d   1      -5.062  89.513 116.054  0.00  0.00     0.028 C 
ATOM     10  C   LIG d   1      -3.814  89.220 116.902  0.00  0.00     0.006 C 
ENDBRANCH   8   9
BRANCH   8  11
ATOM     11  C   LIG d   1      -7.469  89.921 116.159  0.00  0.00     0.028 C 
ATOM     12  C   LIG d   1      -7.402  90.053 114.629  0.00  0.00     0.006 C 
ENDBRANCH   8  11
ENDBRANCH   7   8
ENDBRANCH   1   7
BRANCH   6  13
ATOM     13  N   LIG d   1      -3.584  92.310 118.614  0.00  0.00    -0.311 N 
ATOM     14  C   LIG d   1      -2.308  92.400 118.244  0.00  0.00     0.210 C 
ATOM     15  C   LIG d   1      -1.393  91.308 118.806  0.00  0.00     0.109 C 
ATOM     16  O   LIG d   1      -1.841  93.300 117.529  0.00  0.00    -0.276 OA
ATOM     17  H   LIG d   1      -3.870  91.567 119.222  0.00  0.00     0.149 HD
ENDBRANCH   6  13
BRANCH   5  18
ATOM     18  N   LIG d   1      -3.659  95.286 119.299  0.00  0.00     0.381 N 
ATOM     19  H   LIG d   1      -3.845  96.014 119.959  0.00  0.00    -0.090 HD
ATOM     20  H   LIG d   1      -3.460  95.710 118.410  0.00  0.00    -0.090 HD
ATOM     21  H   LIG d   1      -2.877  94.747 119.599  0.00  0.00    -0.090 HD
ENDBRANCH   5  18
BRANCH   3  22
ATOM     22  C   LIG d   1      -8.385  95.194 118.533  0.00  0.00     0.382 C 
ATOM     23  O   LIG d   1      -9.411  94.710 117.997  0.00  0.00    -0.241 OA
ATOM     24  O   LIG d   1      -8.471  96.261 119.170  0.00  0.00    -0.241 OA
ENDBRANCH   3  22
TORSDOF 7
ENDMDL
MODEL 5
REMARK VINA RESULT:      -4.9     14.982     16.700
REMARK  7 active torsions:
REMARK  status: ('A' for Active; 'I' for Inactive)
REMARK    1  A    between atoms: C_2  and  C_3 
REMARK    2  A    between atoms: C_3  and  O_6 
REMARK    3  A    between atoms: C_3  and  C_4 
REMARK    4  A    between atoms: C_7  and  O_6 
REMARK    5  A    between atoms: C_9  and  C_10 
REMARK    6  A    between atoms: N_15  and  C_14 
REMARK    7  A    between atoms: N_20  and  C_19 
REMARK       I    between atoms: C_22  and  N_20 
ROOT
ATOM      1  C   LIG d   1      -2.068  76.724 117.216  0.00  0.00     0.161 C 
ATOM      2  C   LIG d   1      -2.466  77.418 116.061  0.00  0.00     0.016 C 
ATOM      3  C   LIG d   1      -2.053  77.062 114.757  0.00  0.00     0.038 C 
ATOM      4  C   LIG d   1      -1.329  75.887 114.504  0.00  0.00     0.028 C 
ATOM      5  C   LIG d   1      -0.480  75.432 115.686  0.00  0.00    -0.047 C 
ATOM      6  C   LIG d   1      -1.369  75.374 116.950  0.00  0.00     0.091 C 
ENDROOT
BRANCH   1   7
ATOM      7  O   LIG d   1      -3.199  76.539 118.089  0.00  0.00    -0.368 OA
BRANCH   7   8
ATOM      8  C   LIG d   1      -3.309  77.469 119.195  0.00  0.00     0.119 C 
BRANCH   8   9
ATOM      9  C   LIG d   1      -3.003  76.689 120.488  0.00  0.00     0.028 C 
ATOM     10  C   LIG d   1      -1.619  77.030 121.065  0.00  0.00     0.006 C 
ENDBRANCH   8   9
BRANCH   8  11
ATOM     11  C   LIG d   1      -4.746  77.974 119.357  0.00  0.00     0.028 C 
ATOM     12  C   LIG d   1      -5.560  77.882 118.057  0.00  0.00     0.006 C 
ENDBRANCH   8  11
ENDBRANCH   7   8
ENDBRANCH   1   7
BRANCH   6  13
ATOM     13  N   LIG d   1      -0.598  75.019 118.169  0.00  0.00    -0.311 N 
ATOM     14  C   LIG d   1      -0.880  73.966 118.934  0.00  0.00     0.210 C 
ATOM     15  C   LIG d   1       0.027  73.792 120.156  0.00  0.00     0.109 C 
ATOM     16  O   LIG d   1      -1.776  73.140 118.699  0.00  0.00    -0.276 OA
ATOM     17  H   LIG d   1       0.165  75.618 118.417  0.00  0.00     0.149 HD
ENDBRANCH   6  13
BRANCH   5  18
ATOM     18  N   LIG d   1       0.110  74.127 115.335  0.00  0.00     0.381 N 
ATOM     19  H   LIG d   1       0.575  73.739 116.132  0.00  0.00    -0.090 HD
ATOM     20  H   LIG d   1       0.791  74.263 114.608  0.00  0.00    -0.090 HD
ATOM     21  H   LIG d   1      -0.601  73.504 115.021  0.00  0.00    -0.090 HD
ENDBRANCH   5  18
BRANCH   3  22
ATOM     22  C   LIG d   1      -2.330  77.907 113.693  0.00  0.00     0.382 C 
ATOM     23  O   LIG d   1      -2.204  77.494 112.515  0.00  0.00    -0.241 OA
ATOM     24  O   LIG d   1      -2.662  79.090 113.896  0.00  0.00    -0.241 OA
ENDBRANCH   3  22
TORSDOF 7
ENDMDL
MODEL 6
REMARK VINA RESULT:      -4.8     18.675     21.758
REMARK  7 active torsions:
REMARK  status: ('A' for Active; 'I' for Inactive)
REMARK    1  A    between atoms: C_2  and  C_3 
REMARK    2  A    between atoms: C_3  and  O_6 
REMARK    3  A    between atoms: C_3  and  C_4 
REMARK    4  A    between atoms: C_7  and  O_6 
REMARK    5  A    between atoms: C_9  and  C_10 
REMARK    6  A    between atoms: N_15  and  C_14 
REMARK    7  A    between atoms: N_20  and  C_19 
REMARK       I    between atoms: C_22  and  N_20 
ROOT
ATOM      1  C   LIG d   1     -23.895  83.678 113.685  0.00  0.00     0.161 C 
ATOM      2  C   LIG d   1     -23.040  84.743 114.014  0.00  0.00     0.016 C 
ATOM      3  C   LIG d   1     -23.393  86.103 113.853  0.00  0.00     0.038 C 
ATOM      4  C   LIG d   1     -24.690  86.494 113.491  0.00  0.00     0.028 C 
ATOM      5  C   LIG d   1     -25.430  85.448 112.664  0.00  0.00    -0.047 C 
ATOM      6  C   LIG d   1     -25.354  84.087 113.393  0.00  0.00     0.091 C 
ENDROOT
BRANCH   1   7
ATOM      7  O   LIG d   1     -23.852  82.679 114.723  0.00  0.00    -0.368 OA
BRANCH   7   8
ATOM      8  C   LIG d   1     -24.675  82.934 115.888  0.00  0.00     0.119 C 
BRANCH   8   9
ATOM      9  C   LIG d   1     -23.733  83.323 117.043  0.00  0.00     0.028 C 
ATOM     10  C   LIG d   1     -22.475  82.439 117.099  0.00  0.00     0.006 C 
ENDBRANCH   8   9
BRANCH   8  11
ATOM     11  C   LIG d   1     -25.387  81.662 116.356  0.00  0.00     0.028 C 
ATOM     12  C   LIG d   1     -25.128  80.460 115.434  0.00  0.00     0.006 C 
ENDBRANCH   8  11
ENDBRANCH   7   8
ENDBRANCH   1   7
BRANCH   6  13
ATOM     13  N   LIG d   1     -25.980  82.989 112.612  0.00  0.00    -0.311 N 
ATOM     14  C   LIG d   1     -27.119  82.395 112.964  0.00  0.00     0.210 C 
ATOM     15  C   LIG d   1     -27.580  81.273 112.029  0.00  0.00     0.109 C 
ATOM     16  O   LIG d   1     -27.809  82.713 113.945  0.00  0.00    -0.276 OA
ATOM     17  H   LIG d   1     -25.504  82.689 111.783  0.00  0.00     0.149 HD
ENDBRANCH   6  13
BRANCH   5  18
ATOM     18  N   LIG d   1     -26.813  85.925 112.474  0.00  0.00     0.381 N 
ATOM     19  H   LIG d   1     -26.813  86.917 112.343  0.00  0.00    -0.090 HD
ATOM     20  H   LIG d   1     -27.345  85.716 113.300  0.00  0.00    -0.090 HD
ATOM     21  H   LIG d   1     -27.222  85.478 111.684  0.00  0.00    -0.090 HD
ENDBRANCH   5  18
BRANCH   3  22
ATOM     22  C   LIG d   1     -22.430  87.087 114.017  0.00  0.00     0.382 C 
ATOM     23  O   LIG d   1     -22.662  88.074 114.756  0.00  0.00    -0.241 OA
ATOM     24  O   LIG d   1     -21.350  87.023 113.400  0.00  0.00    -0.241 OA
ENDBRANCH   3  22
TORSDOF 7
ENDMDL
MODEL 7
REMARK VINA RESULT:      -4.7     25.926     28.153
REMARK  7 active torsions:
REMARK  status: ('A' for Active; 'I' for Inactive)
REMARK    1  A    between atoms: C_2  and  C_3 
REMARK    2  A    between atoms: C_3  and  O_6 
REMARK    3  A    between atoms: C_3  and  C_4 
REMARK    4  A    between atoms: C_7  and  O_6 
REMARK    5  A    between atoms: C_9  and  C_10 
REMARK    6  A    between atoms: N_15  and  C_14 
REMARK    7  A    between atoms: N_20  and  C_19 
REMARK       I    between atoms: C_22  and  N_20 
ROOT
ATOM      1  C   LIG d   1     -14.849  66.525 117.625  0.00  0.00     0.161 C 
ATOM      2  C   LIG d   1     -14.924  67.017 116.311  0.00  0.00     0.016 C 
ATOM      3  C   LIG d   1     -15.688  66.403 115.293  0.00  0.00     0.038 C 
ATOM      4  C   LIG d   1     -16.556  65.333 115.560  0.00  0.00     0.028 C 
ATOM      5  C   LIG d   1     -16.128  64.491 116.757  0.00  0.00    -0.047 C 
ATOM      6  C   LIG d   1     -15.876  65.424 117.963  0.00  0.00     0.091 C 
ENDROOT
BRANCH   1   7
ATOM      7  O   LIG d   1     -14.957  67.616 118.562  0.00  0.00    -0.368 OA
BRANCH   7   8
ATOM      8  C   LIG d   1     -16.288  67.901 119.057  0.00  0.00     0.119 C 
BRANCH   8   9
ATOM      9  C   LIG d   1     -16.688  69.294 118.534  0.00  0.00     0.028 C 
ATOM     10  C   LIG d   1     -17.294  70.182 119.634  0.00  0.00     0.006 C 
ENDBRANCH   8   9
BRANCH   8  11
ATOM     11  C   LIG d   1     -16.301  68.022 120.584  0.00  0.00     0.028 C 
ATOM     12  C   LIG d   1     -14.929  67.735 121.215  0.00  0.00     0.006 C 
ENDBRANCH   8  11
ENDBRANCH   7   8
ENDBRANCH   1   7
BRANCH   6  13
ATOM     13  N   LIG d   1     -15.373  64.690 119.153  0.00  0.00    -0.311 N 
ATOM     14  C   LIG d   1     -16.162  64.258 120.136  0.00  0.00     0.210 C 
ATOM     15  C   LIG d   1     -15.437  63.541 121.279  0.00  0.00     0.109 C 
ATOM     16  O   LIG d   1     -17.397  64.373 120.153  0.00  0.00    -0.276 OA
ATOM     17  H   LIG d   1     -14.387  64.526 119.205  0.00  0.00     0.149 HD
ENDBRANCH   6  13
BRANCH   5  18
ATOM     18  N   LIG d   1     -17.191  63.499 117.006  0.00  0.00     0.381 N 
ATOM     19  H   LIG d   1     -18.054  63.821 116.615  0.00  0.00    -0.090 HD
ATOM     20  H   LIG d   1     -17.314  63.396 117.998  0.00  0.00    -0.090 HD
ATOM     21  H   LIG d   1     -16.942  62.623 116.602  0.00  0.00    -0.090 HD
ENDBRANCH   5  18
BRANCH   3  22
ATOM     22  C   LIG d   1     -15.558  66.833 113.981  0.00  0.00     0.382 C 
ATOM     23  O   LIG d   1     -15.797  66.045 113.035  0.00  0.00    -0.241 OA
ATOM     24  O   LIG d   1     -15.161  67.987 113.732  0.00  0.00    -0.241 OA
ENDBRANCH   3  22
TORSDOF 7
ENDMDL
MODEL 8
REMARK VINA RESULT:      -4.7     13.388     15.611
REMARK  7 active torsions:
REMARK  status: ('A' for Active; 'I' for Inactive)
REMARK    1  A    between atoms: C_2  and  C_3 
REMARK    2  A    between atoms: C_3  and  O_6 
REMARK    3  A    between atoms: C_3  and  C_4 
REMARK    4  A    between atoms: C_7  and  O_6 
REMARK    5  A    between atoms: C_9  and  C_10 
REMARK    6  A    between atoms: N_15  and  C_14 
REMARK    7  A    between atoms: N_20  and  C_19 
REMARK       I    between atoms: C_22  and  N_20 
ROOT
ATOM      1  C   LIG d   1      -4.568  77.403 117.358  0.00  0.00     0.161 C 
ATOM      2  C   LIG d   1      -5.182  76.878 116.209  0.00  0.00     0.016 C 
ATOM      3  C   LIG d   1      -4.665  75.781 115.482  0.00  0.00     0.038 C 
ATOM      4  C   LIG d   1      -3.572  75.034 115.946  0.00  0.00     0.028 C 
ATOM      5  C   LIG d   1      -2.621  75.835 116.828  0.00  0.00    -0.047 C 
ATOM      6  C   LIG d   1      -3.436  76.531 117.942  0.00  0.00     0.091 C 
ENDROOT
BRANCH   1   7
ATOM      7  O   LIG d   1      -5.564  77.671 118.365  0.00  0.00    -0.368 OA
BRANCH   7   8
ATOM      8  C   LIG d   1      -6.808  78.246 117.894  0.00  0.00     0.119 C 
BRANCH   8   9
ATOM      9  C   LIG d   1      -6.848  79.712 118.368  0.00  0.00     0.028 C 
ATOM     10  C   LIG d   1      -8.275  80.285 118.380  0.00  0.00     0.006 C 
ENDBRANCH   8   9
BRANCH   8  11
ATOM     11  C   LIG d   1      -8.016  77.574 118.552  0.00  0.00     0.028 C 
ATOM     12  C   LIG d   1      -8.554  76.386 117.737  0.00  0.00     0.006 C 
ENDBRANCH   8  11
ENDBRANCH   7   8
ENDBRANCH   1   7
BRANCH   6  13
ATOM     13  N   LIG d   1      -2.594  77.404 118.800  0.00  0.00    -0.311 N 
ATOM     14  C   LIG d   1      -2.455  77.228 120.113  0.00  0.00     0.210 C 
ATOM     15  C   LIG d   1      -1.556  78.253 120.812  0.00  0.00     0.109 C 
ATOM     16  O   LIG d   1      -2.965  76.301 120.760  0.00  0.00    -0.276 OA
ATOM     17  H   LIG d   1      -2.118  78.163 118.352  0.00  0.00     0.149 HD
ENDBRANCH   6  13
BRANCH   5  18
ATOM     18  N   LIG d   1      -1.606  74.902 117.352  0.00  0.00     0.381 N 
ATOM     19  H   LIG d   1      -0.699  75.166 117.021  0.00  0.00    -0.090 HD
ATOM     20  H   LIG d   1      -1.808  73.978 117.014  0.00  0.00    -0.090 HD
ATOM     21  H   LIG d   1      -1.618  74.909 118.349  0.00  0.00    -0.090 HD
ENDBRANCH   5  18
BRANCH   3  22
ATOM     22  C   LIG d   1      -5.219  75.446 114.256  0.00  0.00     0.382 C 
ATOM     23  O   LIG d   1      -5.285  74.243 113.906  0.00  0.00    -0.241 OA
ATOM     24  O   LIG d   1      -5.614  76.334 113.478  0.00  0.00    -0.241 OA
ENDBRANCH   3  22
TORSDOF 7
ENDMDL
MODEL 9
REMARK VINA RESULT:      -4.6      2.182      2.748
REMARK  7 active torsions:
REMARK  status: ('A' for Active; 'I' for Inactive)
REMARK    1  A    between atoms: C_2  and  C_3 
REMARK    2  A    between atoms: C_3  and  O_6 
REMARK    3  A    between atoms: C_3  and  C_4 
REMARK    4  A    between atoms: C_7  and  O_6 
REMARK    5  A    between atoms: C_9  and  C_10 
REMARK    6  A    between atoms: N_15  and  C_14 
REMARK    7  A    between atoms: N_20  and  C_19 
REMARK       I    between atoms: C_22  and  N_20 
ROOT
ATOM      1  C   LIG d   1      -4.528  92.296 118.001  0.00  0.00     0.161 C 
ATOM      2  C   LIG d   1      -5.483  92.311 116.971  0.00  0.00     0.016 C 
ATOM      3  C   LIG d   1      -5.709  91.219 116.102  0.00  0.00     0.038 C 
ATOM      4  C   LIG d   1      -5.095  89.973 116.303  0.00  0.00     0.028 C 
ATOM      5  C   LIG d   1      -3.752  90.068 117.019  0.00  0.00    -0.047 C 
ATOM      6  C   LIG d   1      -3.928  90.907 118.305  0.00  0.00     0.091 C 
ENDROOT
BRANCH   1   7
ATOM      7  O   LIG d   1      -5.089  92.872 119.197  0.00  0.00    -0.368 OA
BRANCH   7   8
ATOM      8  C   LIG d   1      -6.301  92.252 119.695  0.00  0.00     0.119 C 
BRANCH   8   9
ATOM      9  C   LIG d   1      -7.473  93.198 119.368  0.00  0.00     0.028 C 
ATOM     10  C   LIG d   1      -8.120  93.788 120.632  0.00  0.00     0.006 C 
ENDBRANCH   8   9
BRANCH   8  11
ATOM     11  C   LIG d   1      -6.283  92.141 121.222  0.00  0.00     0.028 C 
ATOM     12  C   LIG d   1      -5.219  91.157 121.736  0.00  0.00     0.006 C 
ENDBRANCH   8  11
ENDBRANCH   7   8
ENDBRANCH   1   7
BRANCH   6  13
ATOM     13  N   LIG d   1      -2.644  91.119 119.023  0.00  0.00    -0.311 N 
ATOM     14  C   LIG d   1      -2.173  90.283 119.947  0.00  0.00     0.210 C 
ATOM     15  C   LIG d   1      -0.841  90.700 120.578  0.00  0.00     0.109 C 
ATOM     16  O   LIG d   1      -2.716  89.219 120.280  0.00  0.00    -0.276 OA
ATOM     17  H   LIG d   1      -2.122  91.942 118.791  0.00  0.00     0.149 HD
ENDBRANCH   6  13
BRANCH   5  18
ATOM     18  N   LIG d   1      -3.291  88.692 117.285  0.00  0.00     0.381 N 
ATOM     19  H   LIG d   1      -3.233  88.182 116.426  0.00  0.00    -0.090 HD
ATOM     20  H   LIG d   1      -3.961  88.234 117.878  0.00  0.00    -0.090 HD
ATOM     21  H   LIG d   1      -2.400  88.711 117.730  0.00  0.00    -0.090 HD
ENDBRANCH   5  18
BRANCH   3  22
ATOM     22  C   LIG d   1      -6.527  91.380 114.995  0.00  0.00     0.382 C 
ATOM     23  O   LIG d   1      -6.105  91.998 113.988  0.00  0.00    -0.241 OA
ATOM     24  O   LIG d   1      -7.697  90.952 115.006  0.00  0.00    -0.241 OA
ENDBRANCH   3  22
TORSDOF 7
ENDMDL
