MODEL 1
REMARK VINA RESULT:      -5.9      0.000      0.000
REMARK  7 active torsions:
REMARK  status: ('A' for Active; 'I' for Inactive)
REMARK    1  A    between atoms: C_2  and  C_3 
REMARK    2  A    between atoms: C_3  and  O_6 
REMARK    3  A    between atoms: C_3  and  C_4 
REMARK    4  A    between atoms: C_7  and  O_6 
REMARK    5  A    between atoms: C_9  and  C_10 
REMARK    6  A    between atoms: N_15  and  C_14 
REMARK    7  A    between atoms: N_20  and  C_19 
REMARK       I    between atoms: C_22  and  N_20 
ROOT
ATOM      1  C   LIG d   1      -5.057  91.178 116.517  0.00  0.00     0.161 C 
ATOM      2  C   LIG d   1      -4.391  90.100 115.910  0.00  0.00     0.016 C 
ATOM      3  C   LIG d   1      -4.951  89.327 114.867  0.00  0.00     0.038 C 
ATOM      4  C   LIG d   1      -6.162  89.677 114.252  0.00  0.00     0.028 C 
ATOM      5  C   LIG d   1      -7.103  90.454 115.167  0.00  0.00    -0.047 C 
ATOM      6  C   LIG d   1      -6.333  91.644 115.785  0.00  0.00     0.091 C 
ENDROOT
BRANCH   1   7
ATOM      7  O   LIG d   1      -4.146  92.281 116.688  0.00  0.00    -0.368 OA
BRANCH   7   8
ATOM      8  C   LIG d   1      -4.005  92.789 118.038  0.00  0.00     0.119 C 
BRANCH   8   9
ATOM      9  C   LIG d   1      -3.549  94.257 117.935  0.00  0.00     0.028 C 
ATOM     10  C   LIG d   1      -4.509  95.221 118.651  0.00  0.00     0.006 C 
ENDBRANCH   8   9
BRANCH   8  11
ATOM     11  C   LIG d   1      -2.884  92.067 118.790  0.00  0.00     0.028 C 
ATOM     12  C   LIG d   1      -1.626  91.863 117.932  0.00  0.00     0.006 C 
ENDBRANCH   8  11
ENDBRANCH   7   8
ENDBRANCH   1   7
BRANCH   6  13
ATOM     13  N   LIG d   1      -7.156  92.408 116.758  0.00  0.00    -0.311 N 
ATOM     14  C   LIG d   1      -7.338  93.725 116.690  0.00  0.00     0.210 C 
ATOM     15  C   LIG d   1      -8.206  94.317 117.805  0.00  0.00     0.109 C 
ATOM     16  O   LIG d   1      -6.889  94.456 115.793  0.00  0.00    -0.276 OA
ATOM     17  H   LIG d   1      -7.583  91.889 117.501  0.00  0.00     0.149 HD
ENDBRANCH   6  13
BRANCH   5  18
ATOM     18  N   LIG d   1      -8.264  90.873 114.360  0.00  0.00     0.381 N 
ATOM     19  H   LIG d   1      -9.089  90.867 114.925  0.00  0.00    -0.090 HD
ATOM     20  H   LIG d   1      -8.391  90.218 113.609  0.00  0.00    -0.090 HD
ATOM     21  H   LIG d   1      -8.112  91.786 113.992  0.00  0.00    -0.090 HD
ENDBRANCH   5  18
BRANCH   3  22
ATOM     22  C   LIG d   1      -4.315  88.166 114.455  0.00  0.00     0.382 C 
ATOM     23  O   LIG d   1      -4.562  87.683 113.323  0.00  0.00    -0.241 OA
ATOM     24  O   LIG d   1      -3.530  87.570 115.217  0.00  0.00    -0.241 OA
ENDBRANCH   3  22
TORSDOF 7
ENDMDL
MODEL 2
REMARK VINA RESULT:      -5.8      0.989      2.044
REMARK  7 active torsions:
REMARK  status: ('A' for Active; 'I' for Inactive)
REMARK    1  A    between atoms: C_2  and  C_3 
REMARK    2  A    between atoms: C_3  and  O_6 
REMARK    3  A    between atoms: C_3  and  C_4 
REMARK    4  A    between atoms: C_7  and  O_6 
REMARK    5  A    between atoms: C_9  and  C_10 
REMARK    6  A    between atoms: N_15  and  C_14 
REMARK    7  A    between atoms: N_20  and  C_19 
REMARK       I    between atoms: C_22  and  N_20 
ROOT
ATOM      1  C   LIG d   1      -5.406  91.182 117.668  0.00  0.00     0.161 C 
ATOM      2  C   LIG d   1      -4.751  90.146 116.980  0.00  0.00     0.016 C 
ATOM      3  C   LIG d   1      -5.013  89.822 115.629  0.00  0.00     0.038 C 
ATOM      4  C   LIG d   1      -5.845  90.614 114.824  0.00  0.00     0.028 C 
ATOM      5  C   LIG d   1      -6.912  91.367 115.612  0.00  0.00    -0.047 C 
ATOM      6  C   LIG d   1      -6.235  92.128 116.774  0.00  0.00     0.091 C 
ENDROOT
BRANCH   1   7
ATOM      7  O   LIG d   1      -4.451  91.933 118.443  0.00  0.00    -0.368 OA
BRANCH   7   8
ATOM      8  C   LIG d   1      -3.389  92.576 117.696  0.00  0.00     0.119 C 
BRANCH   8   9
ATOM      9  C   LIG d   1      -2.061  92.253 118.409  0.00  0.00     0.028 C 
ATOM     10  C   LIG d   1      -1.285  91.120 117.718  0.00  0.00     0.006 C 
ENDBRANCH   8   9
BRANCH   8  11
ATOM     11  C   LIG d   1      -3.516  94.102 117.748  0.00  0.00     0.028 C 
ATOM     12  C   LIG d   1      -4.221  94.598 119.020  0.00  0.00     0.006 C 
ENDBRANCH   8  11
ENDBRANCH   7   8
ENDBRANCH   1   7
BRANCH   6  13
ATOM     13  N   LIG d   1      -7.218  92.823 117.646  0.00  0.00    -0.311 N 
ATOM     14  C   LIG d   1      -7.554  94.103 117.496  0.00  0.00     0.210 C 
ATOM     15  C   LIG d   1      -8.571  94.628 118.514  0.00  0.00     0.109 C 
ATOM     16  O   LIG d   1      -7.130  94.845 116.597  0.00  0.00    -0.276 OA
ATOM     17  H   LIG d   1      -7.634  92.287 118.382  0.00  0.00     0.149 HD
ENDBRANCH   6  13
BRANCH   5  18
ATOM     18  N   LIG d   1      -7.616  92.257 114.670  0.00  0.00     0.381 N 
ATOM     19  H   LIG d   1      -7.132  92.276 113.795  0.00  0.00    -0.090 HD
ATOM     20  H   LIG d   1      -7.624  93.188 115.047  0.00  0.00    -0.090 HD
ATOM     21  H   LIG d   1      -8.551  91.939 114.534  0.00  0.00    -0.090 HD
ENDBRANCH   5  18
BRANCH   3  22
ATOM     22  C   LIG d   1      -4.471  88.669 115.082  0.00  0.00     0.382 C 
ATOM     23  O   LIG d   1      -3.740  87.926 115.781  0.00  0.00    -0.241 OA
ATOM     24  O   LIG d   1      -4.666  88.386 113.885  0.00  0.00    -0.241 OA
ENDBRANCH   3  22
TORSDOF 7
ENDMDL
MODEL 3
REMARK VINA RESULT:      -5.6     31.633     32.885
REMARK  7 active torsions:
REMARK  status: ('A' for Active; 'I' for Inactive)
REMARK    1  A    between atoms: C_2  and  C_3 
REMARK    2  A    between atoms: C_3  and  O_6 
REMARK    3  A    between atoms: C_3  and  C_4 
REMARK    4  A    between atoms: C_7  and  O_6 
REMARK    5  A    between atoms: C_9  and  C_10 
REMARK    6  A    between atoms: N_15  and  C_14 
REMARK    7  A    between atoms: N_20  and  C_19 
REMARK       I    between atoms: C_22  and  N_20 
ROOT
ATOM      1  C   LIG d   1      -2.170  58.688 118.138  0.00  0.00     0.161 C 
ATOM      2  C   LIG d   1      -1.878  58.680 116.764  0.00  0.00     0.016 C 
ATOM      3  C   LIG d   1      -0.574  58.854 116.245  0.00  0.00     0.038 C 
ATOM      4  C   LIG d   1       0.555  58.898 117.076  0.00  0.00     0.028 C 
ATOM      5  C   LIG d   1       0.255  59.416 118.479  0.00  0.00    -0.047 C 
ATOM      6  C   LIG d   1      -0.937  58.624 119.062  0.00  0.00     0.091 C 
ENDROOT
BRANCH   1   7
ATOM      7  O   LIG d   1      -3.086  57.620 118.449  0.00  0.00    -0.368 OA
BRANCH   7   8
ATOM      8  C   LIG d   1      -4.475  57.998 118.612  0.00  0.00     0.119 C 
BRANCH   8   9
ATOM      9  C   LIG d   1      -5.182  57.756 117.264  0.00  0.00     0.028 C 
ATOM     10  C   LIG d   1      -5.723  59.055 116.643  0.00  0.00     0.006 C 
ENDBRANCH   8   9
BRANCH   8  11
ATOM     11  C   LIG d   1      -4.616  59.499 118.880  0.00  0.00     0.028 C 
ATOM     12  C   LIG d   1      -5.147  59.805 120.290  0.00  0.00     0.006 C 
ENDBRANCH   8  11
ENDBRANCH   7   8
ENDBRANCH   1   7
BRANCH   6  13
ATOM     13  N   LIG d   1      -1.350  59.124 120.399  0.00  0.00    -0.311 N 
ATOM     14  C   LIG d   1      -1.633  60.402 120.649  0.00  0.00     0.210 C 
ATOM     15  C   LIG d   1      -2.018  60.707 122.099  0.00  0.00     0.109 C 
ATOM     16  O   LIG d   1      -1.632  61.305 119.799  0.00  0.00    -0.276 OA
ATOM     17  H   LIG d   1      -1.407  58.453 121.140  0.00  0.00     0.149 HD
ENDBRANCH   6  13
BRANCH   5  18
ATOM     18  N   LIG d   1       1.488  59.279 119.278  0.00  0.00     0.381 N 
ATOM     19  H   LIG d   1       1.330  58.647 120.037  0.00  0.00    -0.090 HD
ATOM     20  H   LIG d   1       1.729  60.177 119.659  0.00  0.00    -0.090 HD
ATOM     21  H   LIG d   1       2.230  58.943 118.704  0.00  0.00    -0.090 HD
ENDBRANCH   5  18
BRANCH   3  22
ATOM     22  C   LIG d   1      -0.395  59.026 114.881  0.00  0.00     0.382 C 
ATOM     23  O   LIG d   1      -1.325  59.492 114.180  0.00  0.00    -0.241 OA
ATOM     24  O   LIG d   1       0.670  58.680 114.335  0.00  0.00    -0.241 OA
ENDBRANCH   3  22
TORSDOF 7
ENDMDL
MODEL 4
REMARK VINA RESULT:      -5.6     31.423     33.747
REMARK  7 active torsions:
REMARK  status: ('A' for Active; 'I' for Inactive)
REMARK    1  A    between atoms: C_2  and  C_3 
REMARK    2  A    between atoms: C_3  and  O_6 
REMARK    3  A    between atoms: C_3  and  C_4 
REMARK    4  A    between atoms: C_7  and  O_6 
REMARK    5  A    between atoms: C_9  and  C_10 
REMARK    6  A    between atoms: N_15  and  C_14 
REMARK    7  A    between atoms: N_20  and  C_19 
REMARK       I    between atoms: C_22  and  N_20 
ROOT
ATOM      1  C   LIG d   1      -2.640  57.641 118.940  0.00  0.00     0.161 C 
ATOM      2  C   LIG d   1      -3.036  58.734 119.728  0.00  0.00     0.016 C 
ATOM      3  C   LIG d   1      -2.221  59.868 119.953  0.00  0.00     0.038 C 
ATOM      4  C   LIG d   1      -1.006  60.053 119.277  0.00  0.00     0.028 C 
ATOM      5  C   LIG d   1      -0.337  58.746 118.864  0.00  0.00    -0.047 C 
ATOM      6  C   LIG d   1      -1.364  57.875 118.104  0.00  0.00     0.091 C 
ENDROOT
BRANCH   1   7
ATOM      7  O   LIG d   1      -3.729  57.233 118.088  0.00  0.00    -0.368 OA
BRANCH   7   8
ATOM      8  C   LIG d   1      -4.069  58.140 117.010  0.00  0.00     0.119 C 
BRANCH   8   9
ATOM      9  C   LIG d   1      -5.606  58.228 116.947  0.00  0.00     0.028 C 
ATOM     10  C   LIG d   1      -6.118  59.669 117.111  0.00  0.00     0.006 C 
ENDBRANCH   8   9
BRANCH   8  11
ATOM     11  C   LIG d   1      -3.639  57.577 115.652  0.00  0.00     0.028 C 
ATOM     12  C   LIG d   1      -3.131  58.663 114.691  0.00  0.00     0.006 C 
ENDBRANCH   8  11
ENDBRANCH   7   8
ENDBRANCH   1   7
BRANCH   6  13
ATOM     13  N   LIG d   1      -0.816  56.543 117.738  0.00  0.00    -0.311 N 
ATOM     14  C   LIG d   1      -0.254  56.281 116.559  0.00  0.00     0.210 C 
ATOM     15  C   LIG d   1       0.227  54.838 116.379  0.00  0.00     0.109 C 
ATOM     16  O   LIG d   1      -0.080  57.114 115.657  0.00  0.00    -0.276 OA
ATOM     17  H   LIG d   1      -0.887  55.816 118.423  0.00  0.00     0.149 HD
ENDBRANCH   6  13
BRANCH   5  18
ATOM     18  N   LIG d   1       0.845  59.088 118.050  0.00  0.00     0.381 N 
ATOM     19  H   LIG d   1       0.567  59.257 117.104  0.00  0.00    -0.090 HD
ATOM     20  H   LIG d   1       1.481  58.311 118.059  0.00  0.00    -0.090 HD
ATOM     21  H   LIG d   1       1.292  59.897 118.422  0.00  0.00    -0.090 HD
ENDBRANCH   5  18
BRANCH   3  22
ATOM     22  C   LIG d   1      -2.601  60.812 120.894  0.00  0.00     0.382 C 
ATOM     23  O   LIG d   1      -1.748  61.594 121.379  0.00  0.00    -0.241 OA
ATOM     24  O   LIG d   1      -3.779  60.863 121.297  0.00  0.00    -0.241 OA
ENDBRANCH   3  22
TORSDOF 7
ENDMDL
MODEL 5
REMARK VINA RESULT:      -5.5      1.989      5.378
REMARK  7 active torsions:
REMARK  status: ('A' for Active; 'I' for Inactive)
REMARK    1  A    between atoms: C_2  and  C_3 
REMARK    2  A    between atoms: C_3  and  O_6 
REMARK    3  A    between atoms: C_3  and  C_4 
REMARK    4  A    between atoms: C_7  and  O_6 
REMARK    5  A    between atoms: C_9  and  C_10 
REMARK    6  A    between atoms: N_15  and  C_14 
REMARK    7  A    between atoms: N_20  and  C_19 
REMARK       I    between atoms: C_22  and  N_20 
ROOT
ATOM      1  C   LIG d   1      -5.128  93.020 117.240  0.00  0.00     0.161 C 
ATOM      2  C   LIG d   1      -5.535  94.229 117.829  0.00  0.00     0.016 C 
ATOM      3  C   LIG d   1      -6.752  94.876 117.516  0.00  0.00     0.038 C 
ATOM      4  C   LIG d   1      -7.722  94.277 116.698  0.00  0.00     0.028 C 
ATOM      5  C   LIG d   1      -7.139  93.295 115.687  0.00  0.00    -0.047 C 
ATOM      6  C   LIG d   1      -6.223  92.295 116.430  0.00  0.00     0.091 C 
ENDROOT
BRANCH   1   7
ATOM      7  O   LIG d   1      -4.588  92.143 118.248  0.00  0.00    -0.368 OA
BRANCH   7   8
ATOM      8  C   LIG d   1      -3.193  91.781 118.097  0.00  0.00     0.119 C 
BRANCH   8   9
ATOM      9  C   LIG d   1      -3.012  90.374 118.701  0.00  0.00     0.028 C 
ATOM     10  C   LIG d   1      -2.585  89.335 117.651  0.00  0.00     0.006 C 
ENDBRANCH   8   9
BRANCH   8  11
ATOM     11  C   LIG d   1      -2.286  92.697 118.923  0.00  0.00     0.028 C 
ATOM     12  C   LIG d   1      -1.534  93.724 118.063  0.00  0.00     0.006 C 
ENDBRANCH   8  11
ENDBRANCH   7   8
ENDBRANCH   1   7
BRANCH   6  13
ATOM     13  N   LIG d   1      -5.545  91.351 115.503  0.00  0.00    -0.311 N 
ATOM     14  C   LIG d   1      -5.586  90.028 115.646  0.00  0.00     0.210 C 
ATOM     15  C   LIG d   1      -4.803  89.239 114.592  0.00  0.00     0.109 C 
ATOM     16  O   LIG d   1      -6.222  89.430 116.527  0.00  0.00    -0.276 OA
ATOM     17  H   LIG d   1      -5.032  91.749 114.741  0.00  0.00     0.149 HD
ENDBRANCH   6  13
BRANCH   5  18
ATOM     18  N   LIG d   1      -8.268  92.642 114.998  0.00  0.00     0.381 N 
ATOM     19  H   LIG d   1      -9.015  93.297 114.877  0.00  0.00    -0.090 HD
ATOM     20  H   LIG d   1      -8.601  91.884 115.566  0.00  0.00    -0.090 HD
ATOM     21  H   LIG d   1      -7.972  92.298 114.111  0.00  0.00    -0.090 HD
ENDBRANCH   5  18
BRANCH   3  22
ATOM     22  C   LIG d   1      -6.992  96.156 117.991  0.00  0.00     0.382 C 
ATOM     23  O   LIG d   1      -7.016  96.372 119.227  0.00  0.00    -0.241 OA
ATOM     24  O   LIG d   1      -7.229  97.090 117.201  0.00  0.00    -0.241 OA
ENDBRANCH   3  22
TORSDOF 7
ENDMDL
MODEL 6
REMARK VINA RESULT:      -5.4     31.937     33.508
REMARK  7 active torsions:
REMARK  status: ('A' for Active; 'I' for Inactive)
REMARK    1  A    between atoms: C_2  and  C_3 
REMARK    2  A    between atoms: C_3  and  O_6 
REMARK    3  A    between atoms: C_3  and  C_4 
REMARK    4  A    between atoms: C_7  and  O_6 
REMARK    5  A    between atoms: C_9  and  C_10 
REMARK    6  A    between atoms: N_15  and  C_14 
REMARK    7  A    between atoms: N_20  and  C_19 
REMARK       I    between atoms: C_22  and  N_20 
ROOT
ATOM      1  C   LIG d   1      -2.201  59.413 118.279  0.00  0.00     0.161 C 
ATOM      2  C   LIG d   1      -0.979  58.945 117.768  0.00  0.00     0.016 C 
ATOM      3  C   LIG d   1      -0.075  58.154 118.514  0.00  0.00     0.038 C 
ATOM      4  C   LIG d   1      -0.404  57.646 119.779  0.00  0.00     0.028 C 
ATOM      5  C   LIG d   1      -1.411  58.508 120.534  0.00  0.00    -0.047 C 
ATOM      6  C   LIG d   1      -2.627  58.777 119.619  0.00  0.00     0.091 C 
ENDROOT
BRANCH   1   7
ATOM      7  O   LIG d   1      -3.239  59.246 117.293  0.00  0.00    -0.368 OA
BRANCH   7   8
ATOM      8  C   LIG d   1      -3.757  57.903 117.134  0.00  0.00     0.119 C 
BRANCH   8   9
ATOM      9  C   LIG d   1      -3.383  57.428 115.716  0.00  0.00     0.028 C 
ATOM     10  C   LIG d   1      -3.142  58.599 114.749  0.00  0.00     0.006 C 
ENDBRANCH   8   9
BRANCH   8  11
ATOM     11  C   LIG d   1      -5.288  57.887 117.176  0.00  0.00     0.028 C 
ATOM     12  C   LIG d   1      -5.901  59.293 117.073  0.00  0.00     0.006 C 
ENDBRANCH   8  11
ENDBRANCH   7   8
ENDBRANCH   1   7
BRANCH   6  13
ATOM     13  N   LIG d   1      -3.622  59.683 120.250  0.00  0.00    -0.311 N 
ATOM     14  C   LIG d   1      -4.648  59.249 120.981  0.00  0.00     0.210 C 
ATOM     15  C   LIG d   1      -5.566  60.349 121.524  0.00  0.00     0.109 C 
ATOM     16  O   LIG d   1      -4.866  58.061 121.259  0.00  0.00    -0.276 OA
ATOM     17  H   LIG d   1      -3.503  60.666 120.102  0.00  0.00     0.149 HD
ENDBRANCH   6  13
BRANCH   5  18
ATOM     18  N   LIG d   1      -1.768  57.793 121.774  0.00  0.00     0.381 N 
ATOM     19  H   LIG d   1      -2.326  58.384 122.357  0.00  0.00    -0.090 HD
ATOM     20  H   LIG d   1      -0.925  57.565 122.272  0.00  0.00    -0.090 HD
ATOM     21  H   LIG d   1      -2.269  56.960 121.556  0.00  0.00    -0.090 HD
ENDBRANCH   5  18
BRANCH   3  22
ATOM     22  C   LIG d   1       1.190  57.895 118.009  0.00  0.00     0.382 C 
ATOM     23  O   LIG d   1       1.862  56.937 118.461  0.00  0.00    -0.241 OA
ATOM     24  O   LIG d   1       1.686  58.635 117.138  0.00  0.00    -0.241 OA
ENDBRANCH   3  22
TORSDOF 7
ENDMDL
MODEL 7
REMARK VINA RESULT:      -5.3     31.663     33.785
REMARK  7 active torsions:
REMARK  status: ('A' for Active; 'I' for Inactive)
REMARK    1  A    between atoms: C_2  and  C_3 
REMARK    2  A    between atoms: C_3  and  O_6 
REMARK    3  A    between atoms: C_3  and  C_4 
REMARK    4  A    between atoms: C_7  and  O_6 
REMARK    5  A    between atoms: C_9  and  C_10 
REMARK    6  A    between atoms: N_15  and  C_14 
REMARK    7  A    between atoms: N_20  and  C_19 
REMARK       I    between atoms: C_22  and  N_20 
ROOT
ATOM      1  C   LIG d   1      -0.966  57.262 118.113  0.00  0.00     0.161 C 
ATOM      2  C   LIG d   1      -0.400  57.962 117.035  0.00  0.00     0.016 C 
ATOM      3  C   LIG d   1      -1.151  58.438 115.935  0.00  0.00     0.038 C 
ATOM      4  C   LIG d   1      -2.552  58.377 115.913  0.00  0.00     0.028 C 
ATOM      5  C   LIG d   1      -3.122  57.230 116.741  0.00  0.00    -0.047 C 
ATOM      6  C   LIG d   1      -2.508  57.282 118.159  0.00  0.00     0.091 C 
ENDROOT
BRANCH   1   7
ATOM      7  O   LIG d   1      -0.421  57.751 119.354  0.00  0.00    -0.368 OA
BRANCH   7   8
ATOM      8  C   LIG d   1       0.006  59.135 119.361  0.00  0.00     0.119 C 
BRANCH   8   9
ATOM      9  C   LIG d   1       1.371  59.196 120.072  0.00  0.00     0.028 C 
ATOM     10  C   LIG d   1       1.310  59.981 121.393  0.00  0.00     0.006 C 
ENDBRANCH   8   9
BRANCH   8  11
ATOM     11  C   LIG d   1      -0.931  60.003 120.206  0.00  0.00     0.028 C 
ATOM     12  C   LIG d   1      -1.934  60.800 119.357  0.00  0.00     0.006 C 
ENDBRANCH   8  11
ENDBRANCH   7   8
ENDBRANCH   1   7
BRANCH   6  13
ATOM     13  N   LIG d   1      -2.948  56.146 119.009  0.00  0.00    -0.311 N 
ATOM     14  C   LIG d   1      -3.966  56.221 119.865  0.00  0.00     0.210 C 
ATOM     15  C   LIG d   1      -4.240  54.939 120.658  0.00  0.00     0.109 C 
ATOM     16  O   LIG d   1      -4.689  57.217 120.018  0.00  0.00    -0.276 OA
ATOM     17  H   LIG d   1      -2.436  55.289 118.926  0.00  0.00     0.149 HD
ENDBRANCH   6  13
BRANCH   5  18
ATOM     18  N   LIG d   1      -4.591  57.367 116.741  0.00  0.00     0.381 N 
ATOM     19  H   LIG d   1      -4.910  57.587 115.819  0.00  0.00    -0.090 HD
ATOM     20  H   LIG d   1      -4.847  58.122 117.353  0.00  0.00    -0.090 HD
ATOM     21  H   LIG d   1      -5.012  56.520 117.054  0.00  0.00    -0.090 HD
ENDBRANCH   5  18
BRANCH   3  22
ATOM     22  C   LIG d   1      -0.496  58.947 114.824  0.00  0.00     0.382 C 
ATOM     23  O   LIG d   1       0.668  58.567 114.554  0.00  0.00    -0.241 OA
ATOM     24  O   LIG d   1      -1.038  59.816 114.115  0.00  0.00    -0.241 OA
ENDBRANCH   3  22
TORSDOF 7
ENDMDL
MODEL 8
REMARK VINA RESULT:      -5.1      2.740      4.382
REMARK  7 active torsions:
REMARK  status: ('A' for Active; 'I' for Inactive)
REMARK    1  A    between atoms: C_2  and  C_3 
REMARK    2  A    between atoms: C_3  and  O_6 
REMARK    3  A    between atoms: C_3  and  C_4 
REMARK    4  A    between atoms: C_7  and  O_6 
REMARK    5  A    between atoms: C_9  and  C_10 
REMARK    6  A    between atoms: N_15  and  C_14 
REMARK    7  A    between atoms: N_20  and  C_19 
REMARK       I    between atoms: C_22  and  N_20 
ROOT
ATOM      1  C   LIG d   1      -5.167  93.000 116.526  0.00  0.00     0.161 C 
ATOM      2  C   LIG d   1      -6.261  92.232 116.095  0.00  0.00     0.016 C 
ATOM      3  C   LIG d   1      -6.367  90.839 116.308  0.00  0.00     0.038 C 
ATOM      4  C   LIG d   1      -5.449  90.139 117.105  0.00  0.00     0.028 C 
ATOM      5  C   LIG d   1      -4.064  90.777 117.137  0.00  0.00    -0.047 C 
ATOM      6  C   LIG d   1      -4.209  92.274 117.494  0.00  0.00     0.091 C 
ENDROOT
BRANCH   1   7
ATOM      7  O   LIG d   1      -5.634  94.231 117.113  0.00  0.00    -0.368 OA
BRANCH   7   8
ATOM      8  C   LIG d   1      -6.351  94.108 118.366  0.00  0.00     0.119 C 
BRANCH   8   9
ATOM      9  C   LIG d   1      -7.652  94.923 118.237  0.00  0.00     0.028 C 
ATOM     10  C   LIG d   1      -8.783  94.367 119.118  0.00  0.00     0.006 C 
ENDBRANCH   8   9
BRANCH   8  11
ATOM     11  C   LIG d   1      -5.577  94.758 119.517  0.00  0.00     0.028 C 
ATOM     12  C   LIG d   1      -4.670  95.908 119.050  0.00  0.00     0.006 C 
ENDBRANCH   8  11
ENDBRANCH   7   8
ENDBRANCH   1   7
BRANCH   6  13
ATOM     13  N   LIG d   1      -2.909  92.993 117.464  0.00  0.00    -0.311 N 
ATOM     14  C   LIG d   1      -2.163  93.203 118.547  0.00  0.00     0.210 C 
ATOM     15  C   LIG d   1      -0.868  93.983 118.298  0.00  0.00     0.109 C 
ATOM     16  O   LIG d   1      -2.434  92.791 119.685  0.00  0.00    -0.276 OA
ATOM     17  H   LIG d   1      -2.597  93.334 116.576  0.00  0.00     0.149 HD
ENDBRANCH   6  13
BRANCH   5  18
ATOM     18  N   LIG d   1      -3.249  90.026 118.111  0.00  0.00     0.381 N 
ATOM     19  H   LIG d   1      -3.335  89.044 117.938  0.00  0.00    -0.090 HD
ATOM     20  H   LIG d   1      -3.593  90.215 119.036  0.00  0.00    -0.090 HD
ATOM     21  H   LIG d   1      -2.295  90.302 118.041  0.00  0.00    -0.090 HD
ENDBRANCH   5  18
BRANCH   3  22
ATOM     22  C   LIG d   1      -7.379  90.123 115.686  0.00  0.00     0.382 C 
ATOM     23  O   LIG d   1      -7.985  89.221 116.313  0.00  0.00    -0.241 OA
ATOM     24  O   LIG d   1      -7.663  90.338 114.493  0.00  0.00    -0.241 OA
ENDBRANCH   3  22
TORSDOF 7
ENDMDL
MODEL 9
REMARK VINA RESULT:      -5.1     32.429     34.184
REMARK  7 active torsions:
REMARK  status: ('A' for Active; 'I' for Inactive)
REMARK    1  A    between atoms: C_2  and  C_3 
REMARK    2  A    between atoms: C_3  and  O_6 
REMARK    3  A    between atoms: C_3  and  C_4 
REMARK    4  A    between atoms: C_7  and  O_6 
REMARK    5  A    between atoms: C_9  and  C_10 
REMARK    6  A    between atoms: N_15  and  C_14 
REMARK    7  A    between atoms: N_20  and  C_19 
REMARK       I    between atoms: C_22  and  N_20 
ROOT
ATOM      1  C   LIG d   1      -2.039  58.211 117.911  0.00  0.00     0.161 C 
ATOM      2  C   LIG d   1      -1.766  58.777 116.654  0.00  0.00     0.016 C 
ATOM      3  C   LIG d   1      -0.746  58.309 115.795  0.00  0.00     0.038 C 
ATOM      4  C   LIG d   1      -0.023  57.139 116.071  0.00  0.00     0.028 C 
ATOM      5  C   LIG d   1       0.080  56.828 117.560  0.00  0.00    -0.047 C 
ATOM      6  C   LIG d   1      -1.335  56.865 118.180  0.00  0.00     0.091 C 
ENDROOT
BRANCH   1   7
ATOM      7  O   LIG d   1      -3.463  58.076 118.087  0.00  0.00    -0.368 OA
BRANCH   7   8
ATOM      8  C   LIG d   1      -4.136  59.190 118.723  0.00  0.00     0.119 C 
BRANCH   8   9
ATOM      9  C   LIG d   1      -4.506  58.751 120.154  0.00  0.00     0.028 C 
ATOM     10  C   LIG d   1      -4.959  59.931 121.030  0.00  0.00     0.006 C 
ENDBRANCH   8   9
BRANCH   8  11
ATOM     11  C   LIG d   1      -5.469  59.502 118.037  0.00  0.00     0.028 C 
ATOM     12  C   LIG d   1      -5.716  58.635 116.792  0.00  0.00     0.006 C 
ENDBRANCH   8  11
ENDBRANCH   7   8
ENDBRANCH   1   7
BRANCH   6  13
ATOM     13  N   LIG d   1      -1.315  56.654 119.651  0.00  0.00    -0.311 N 
ATOM     14  C   LIG d   1      -2.103  55.782 120.277  0.00  0.00     0.210 C 
ATOM     15  C   LIG d   1      -1.936  55.736 121.799  0.00  0.00     0.109 C 
ATOM     16  O   LIG d   1      -2.902  55.018 119.713  0.00  0.00    -0.276 OA
ATOM     17  H   LIG d   1      -0.674  57.209 120.183  0.00  0.00     0.149 HD
ENDBRANCH   6  13
BRANCH   5  18
ATOM     18  N   LIG d   1       0.737  55.514 117.696  0.00  0.00     0.381 N 
ATOM     19  H   LIG d   1       1.576  55.496 117.150  0.00  0.00    -0.090 HD
ATOM     20  H   LIG d   1       0.119  54.803 117.347  0.00  0.00    -0.090 HD
ATOM     21  H   LIG d   1       0.952  55.337 118.653  0.00  0.00    -0.090 HD
ENDBRANCH   5  18
BRANCH   3  22
ATOM     22  C   LIG d   1      -0.413  59.038 114.663  0.00  0.00     0.382 C 
ATOM     23  O   LIG d   1      -1.276  59.756 114.103  0.00  0.00    -0.241 OA
ATOM     24  O   LIG d   1       0.728  58.952 114.170  0.00  0.00    -0.241 OA
ENDBRANCH   3  22
TORSDOF 7
ENDMDL
