MODEL 1
REMARK VINA RESULT:      -5.5      0.000      0.000
REMARK  7 active torsions:
REMARK  status: ('A' for Active; 'I' for Inactive)
REMARK    1  A    between atoms: C_2  and  C_3 
REMARK    2  A    between atoms: C_3  and  O_6 
REMARK    3  A    between atoms: C_3  and  C_4 
REMARK    4  A    between atoms: C_7  and  O_6 
REMARK    5  A    between atoms: C_9  and  C_10 
REMARK    6  A    between atoms: N_15  and  C_14 
REMARK    7  A    between atoms: N_20  and  C_19 
REMARK       I    between atoms: C_22  and  N_20 
ROOT
ATOM      1  C   LIG d   1      -4.155  92.422 116.991  0.00  0.00     0.161 C 
ATOM      2  C   LIG d   1      -5.346  91.776 116.619  0.00  0.00     0.016 C 
ATOM      3  C   LIG d   1      -5.415  90.405 116.283  0.00  0.00     0.038 C 
ATOM      4  C   LIG d   1      -4.318  89.546 116.443  0.00  0.00     0.028 C 
ATOM      5  C   LIG d   1      -2.972  90.255 116.332  0.00  0.00    -0.047 C 
ATOM      6  C   LIG d   1      -2.970  91.477 117.278  0.00  0.00     0.091 C 
ENDROOT
BRANCH   1   7
ATOM      7  O   LIG d   1      -4.398  93.281 118.123  0.00  0.00    -0.368 OA
BRANCH   7   8
ATOM      8  C   LIG d   1      -5.766  93.342 118.595  0.00  0.00     0.119 C 
BRANCH   8   9
ATOM      9  C   LIG d   1      -6.269  94.781 118.370  0.00  0.00     0.028 C 
ATOM     10  C   LIG d   1      -7.609  95.051 119.076  0.00  0.00     0.006 C 
ENDBRANCH   8   9
BRANCH   8  11
ATOM     11  C   LIG d   1      -5.844  93.116 120.107  0.00  0.00     0.028 C 
ATOM     12  C   LIG d   1      -4.890  92.015 120.596  0.00  0.00     0.006 C 
ENDBRANCH   8  11
ENDBRANCH   7   8
ENDBRANCH   1   7
BRANCH   6  13
ATOM     13  N   LIG d   1      -1.721  92.276 117.169  0.00  0.00    -0.311 N 
ATOM     14  C   LIG d   1      -0.664  92.095 117.959  0.00  0.00     0.210 C 
ATOM     15  C   LIG d   1       0.512  93.039 117.690  0.00  0.00     0.109 C 
ATOM     16  O   LIG d   1      -0.576  91.222 118.835  0.00  0.00    -0.276 OA
ATOM     17  H   LIG d   1      -1.694  92.986 116.464  0.00  0.00     0.149 HD
ENDBRANCH   6  13
BRANCH   5  18
ATOM     18  N   LIG d   1      -1.922  89.271 116.655  0.00  0.00     0.381 N 
ATOM     19  H   LIG d   1      -2.225  88.354 116.395  0.00  0.00    -0.090 HD
ATOM     20  H   LIG d   1      -1.762  89.281 117.647  0.00  0.00    -0.090 HD
ATOM     21  H   LIG d   1      -1.081  89.500 116.173  0.00  0.00    -0.090 HD
ENDBRANCH   5  18
BRANCH   3  22
ATOM     22  C   LIG d   1      -6.583  89.888 115.743  0.00  0.00     0.382 C 
ATOM     23  O   LIG d   1      -7.485  90.662 115.342  0.00  0.00    -0.241 OA
ATOM     24  O   LIG d   1      -6.764  88.656 115.691  0.00  0.00    -0.241 OA
ENDBRANCH   3  22
TORSDOF 7
ENDMDL
MODEL 2
REMARK VINA RESULT:      -5.4     29.832     32.132
REMARK  7 active torsions:
REMARK  status: ('A' for Active; 'I' for Inactive)
REMARK    1  A    between atoms: C_2  and  C_3 
REMARK    2  A    between atoms: C_3  and  O_6 
REMARK    3  A    between atoms: C_3  and  C_4 
REMARK    4  A    between atoms: C_7  and  O_6 
REMARK    5  A    between atoms: C_9  and  C_10 
REMARK    6  A    between atoms: N_15  and  C_14 
REMARK    7  A    between atoms: N_20  and  C_19 
REMARK       I    between atoms: C_22  and  N_20 
ROOT
ATOM      1  C   LIG d   1      -1.571  60.273 119.986  0.00  0.00     0.161 C 
ATOM      2  C   LIG d   1      -1.575  61.337 120.904  0.00  0.00     0.016 C 
ATOM      3  C   LIG d   1      -0.397  61.937 121.404  0.00  0.00     0.038 C 
ATOM      4  C   LIG d   1       0.872  61.612 120.902  0.00  0.00     0.028 C 
ATOM      5  C   LIG d   1       0.958  60.196 120.344  0.00  0.00    -0.047 C 
ATOM      6  C   LIG d   1      -0.200  59.980 119.342  0.00  0.00     0.091 C 
ENDROOT
BRANCH   1   7
ATOM      7  O   LIG d   1      -2.564  60.504 118.967  0.00  0.00    -0.368 OA
BRANCH   7   8
ATOM      8  C   LIG d   1      -3.847  59.861 119.170  0.00  0.00     0.119 C 
BRANCH   8   9
ATOM      9  C   LIG d   1      -3.573  58.410 119.610  0.00  0.00     0.028 C 
ATOM     10  C   LIG d   1      -3.972  57.386 118.535  0.00  0.00     0.006 C 
ENDBRANCH   8   9
BRANCH   8  11
ATOM     11  C   LIG d   1      -4.626  59.747 117.856  0.00  0.00     0.028 C 
ATOM     12  C   LIG d   1      -5.948  60.530 117.877  0.00  0.00     0.006 C 
ENDBRANCH   8  11
ENDBRANCH   7   8
ENDBRANCH   1   7
BRANCH   6  13
ATOM     13  N   LIG d   1      -0.239  58.592 118.813  0.00  0.00    -0.311 N 
ATOM     14  C   LIG d   1      -0.464  58.302 117.532  0.00  0.00     0.210 C 
ATOM     15  C   LIG d   1      -0.483  56.806 117.202  0.00  0.00     0.109 C 
ATOM     16  O   LIG d   1      -0.617  59.142 116.633  0.00  0.00    -0.276 OA
ATOM     17  H   LIG d   1      -0.094  57.849 119.468  0.00  0.00     0.149 HD
ENDBRANCH   6  13
BRANCH   5  18
ATOM     18  N   LIG d   1       2.290  60.039 119.731  0.00  0.00     0.381 N 
ATOM     19  H   LIG d   1       2.316  60.514 118.851  0.00  0.00    -0.090 HD
ATOM     20  H   LIG d   1       2.459  59.062 119.566  0.00  0.00    -0.090 HD
ATOM     21  H   LIG d   1       2.990  60.407 120.336  0.00  0.00    -0.090 HD
ENDBRANCH   5  18
BRANCH   3  22
ATOM     22  C   LIG d   1      -0.479  62.847 122.448  0.00  0.00     0.382 C 
ATOM     23  O   LIG d   1       0.450  62.923 123.288  0.00  0.00    -0.241 OA
ATOM     24  O   LIG d   1      -1.491  63.560 122.586  0.00  0.00    -0.241 OA
ENDBRANCH   3  22
TORSDOF 7
ENDMDL
MODEL 3
REMARK VINA RESULT:      -5.3     29.824     31.806
REMARK  7 active torsions:
REMARK  status: ('A' for Active; 'I' for Inactive)
REMARK    1  A    between atoms: C_2  and  C_3 
REMARK    2  A    between atoms: C_3  and  O_6 
REMARK    3  A    between atoms: C_3  and  C_4 
REMARK    4  A    between atoms: C_7  and  O_6 
REMARK    5  A    between atoms: C_9  and  C_10 
REMARK    6  A    between atoms: N_15  and  C_14 
REMARK    7  A    between atoms: N_20  and  C_19 
REMARK       I    between atoms: C_22  and  N_20 
ROOT
ATOM      1  C   LIG d   1      -2.125  60.447 119.694  0.00  0.00     0.161 C 
ATOM      2  C   LIG d   1      -0.970  60.812 118.983  0.00  0.00     0.016 C 
ATOM      3  C   LIG d   1       0.001  61.710 119.483  0.00  0.00     0.038 C 
ATOM      4  C   LIG d   1      -0.043  62.191 120.800  0.00  0.00     0.028 C 
ATOM      5  C   LIG d   1      -1.453  62.248 121.378  0.00  0.00    -0.047 C 
ATOM      6  C   LIG d   1      -2.134  60.875 121.177  0.00  0.00     0.091 C 
ENDROOT
BRANCH   1   7
ATOM      7  O   LIG d   1      -2.340  59.026 119.581  0.00  0.00    -0.368 OA
BRANCH   7   8
ATOM      8  C   LIG d   1      -3.571  58.617 118.935  0.00  0.00     0.119 C 
BRANCH   8   9
ATOM      9  C   LIG d   1      -3.297  57.279 118.222  0.00  0.00     0.028 C 
ATOM     10  C   LIG d   1      -2.208  57.401 117.143  0.00  0.00     0.006 C 
ENDBRANCH   8   9
BRANCH   8  11
ATOM     11  C   LIG d   1      -3.969  59.594 117.825  0.00  0.00     0.028 C 
ATOM     12  C   LIG d   1      -5.376  60.181 118.024  0.00  0.00     0.006 C 
ENDBRANCH   8  11
ENDBRANCH   7   8
ENDBRANCH   1   7
BRANCH   6  13
ATOM     13  N   LIG d   1      -3.547  60.869 121.638  0.00  0.00    -0.311 N 
ATOM     14  C   LIG d   1      -3.917  60.490 122.860  0.00  0.00     0.210 C 
ATOM     15  C   LIG d   1      -5.425  60.541 123.123  0.00  0.00     0.109 C 
ATOM     16  O   LIG d   1      -3.137  60.146 123.761  0.00  0.00    -0.276 OA
ATOM     17  H   LIG d   1      -4.242  61.163 120.981  0.00  0.00     0.149 HD
ENDBRANCH   6  13
BRANCH   5  18
ATOM     18  N   LIG d   1      -1.338  62.634 122.797  0.00  0.00     0.381 N 
ATOM     19  H   LIG d   1      -1.513  63.614 122.896  0.00  0.00    -0.090 HD
ATOM     20  H   LIG d   1      -0.402  62.447 123.109  0.00  0.00    -0.090 HD
ATOM     21  H   LIG d   1      -1.989  62.116 123.345  0.00  0.00    -0.090 HD
ENDBRANCH   5  18
BRANCH   3  22
ATOM     22  C   LIG d   1       1.008  62.167 118.648  0.00  0.00     0.382 C 
ATOM     23  O   LIG d   1       0.974  63.342 118.210  0.00  0.00    -0.241 OA
ATOM     24  O   LIG d   1       1.928  61.406 118.291  0.00  0.00    -0.241 OA
ENDBRANCH   3  22
TORSDOF 7
ENDMDL
MODEL 4
REMARK VINA RESULT:      -5.3      2.287      5.095
REMARK  7 active torsions:
REMARK  status: ('A' for Active; 'I' for Inactive)
REMARK    1  A    between atoms: C_2  and  C_3 
REMARK    2  A    between atoms: C_3  and  O_6 
REMARK    3  A    between atoms: C_3  and  C_4 
REMARK    4  A    between atoms: C_7  and  O_6 
REMARK    5  A    between atoms: C_9  and  C_10 
REMARK    6  A    between atoms: N_15  and  C_14 
REMARK    7  A    between atoms: N_20  and  C_19 
REMARK       I    between atoms: C_22  and  N_20 
ROOT
ATOM      1  C   LIG d   1      -5.019  93.043 118.009  0.00  0.00     0.161 C 
ATOM      2  C   LIG d   1      -6.188  93.821 118.036  0.00  0.00     0.016 C 
ATOM      3  C   LIG d   1      -6.342  94.967 118.850  0.00  0.00     0.038 C 
ATOM      4  C   LIG d   1      -5.274  95.503 119.585  0.00  0.00     0.028 C 
ATOM      5  C   LIG d   1      -4.229  94.465 119.979  0.00  0.00    -0.047 C 
ATOM      6  C   LIG d   1      -3.805  93.676 118.720  0.00  0.00     0.091 C 
ENDROOT
BRANCH   1   7
ATOM      7  O   LIG d   1      -4.685  92.710 116.647  0.00  0.00    -0.368 OA
BRANCH   7   8
ATOM      8  C   LIG d   1      -5.067  91.385 116.202  0.00  0.00     0.119 C 
BRANCH   8   9
ATOM      9  C   LIG d   1      -3.773  90.570 116.013  0.00  0.00     0.028 C 
ATOM     10  C   LIG d   1      -4.033  89.054 115.993  0.00  0.00     0.006 C 
ENDBRANCH   8   9
BRANCH   8  11
ATOM     11  C   LIG d   1      -5.724  91.430 114.819  0.00  0.00     0.028 C 
ATOM     12  C   LIG d   1      -7.145  90.845 114.816  0.00  0.00     0.006 C 
ENDBRANCH   8  11
ENDBRANCH   7   8
ENDBRANCH   1   7
BRANCH   6  13
ATOM     13  N   LIG d   1      -2.846  92.583 119.031  0.00  0.00    -0.311 N 
ATOM     14  C   LIG d   1      -1.688  92.420 118.394  0.00  0.00     0.210 C 
ATOM     15  C   LIG d   1      -0.859  91.219 118.858  0.00  0.00     0.109 C 
ATOM     16  O   LIG d   1      -1.254  93.176 117.512  0.00  0.00    -0.276 OA
ATOM     17  H   LIG d   1      -3.105  91.942 119.756  0.00  0.00     0.149 HD
ENDBRANCH   6  13
BRANCH   5  18
ATOM     18  N   LIG d   1      -3.108  95.181 120.618  0.00  0.00     0.381 N 
ATOM     19  H   LIG d   1      -3.057  94.935 121.586  0.00  0.00    -0.090 HD
ATOM     20  H   LIG d   1      -3.275  96.169 120.552  0.00  0.00    -0.090 HD
ATOM     21  H   LIG d   1      -2.253  94.949 120.163  0.00  0.00    -0.090 HD
ENDBRANCH   5  18
BRANCH   3  22
ATOM     22  C   LIG d   1      -7.587  95.566 118.965  0.00  0.00     0.382 C 
ATOM     23  O   LIG d   1      -8.604  94.993 118.504  0.00  0.00    -0.241 OA
ATOM     24  O   LIG d   1      -7.701  96.692 119.485  0.00  0.00    -0.241 OA
ENDBRANCH   3  22
TORSDOF 7
ENDMDL
MODEL 5
REMARK VINA RESULT:      -5.3     30.966     32.282
REMARK  7 active torsions:
REMARK  status: ('A' for Active; 'I' for Inactive)
REMARK    1  A    between atoms: C_2  and  C_3 
REMARK    2  A    between atoms: C_3  and  O_6 
REMARK    3  A    between atoms: C_3  and  C_4 
REMARK    4  A    between atoms: C_7  and  O_6 
REMARK    5  A    between atoms: C_9  and  C_10 
REMARK    6  A    between atoms: N_15  and  C_14 
REMARK    7  A    between atoms: N_20  and  C_19 
REMARK       I    between atoms: C_22  and  N_20 
ROOT
ATOM      1  C   LIG d   1      -1.775  61.188 119.790  0.00  0.00     0.161 C 
ATOM      2  C   LIG d   1      -0.498  61.267 119.210  0.00  0.00     0.016 C 
ATOM      3  C   LIG d   1       0.661  60.714 119.801  0.00  0.00     0.038 C 
ATOM      4  C   LIG d   1       0.597  59.908 120.947  0.00  0.00     0.028 C 
ATOM      5  C   LIG d   1      -0.597  60.222 121.842  0.00  0.00    -0.047 C 
ATOM      6  C   LIG d   1      -1.883  60.216 120.984  0.00  0.00     0.091 C 
ENDROOT
BRANCH   1   7
ATOM      7  O   LIG d   1      -2.749  60.854 118.782  0.00  0.00    -0.368 OA
BRANCH   7   8
ATOM      8  C   LIG d   1      -2.874  59.447 118.458  0.00  0.00     0.119 C 
BRANCH   8   9
ATOM      9  C   LIG d   1      -2.315  59.249 117.036  0.00  0.00     0.028 C 
ATOM     10  C   LIG d   1      -1.058  58.362 117.018  0.00  0.00     0.006 C 
ENDBRANCH   8   9
BRANCH   8  11
ATOM     11  C   LIG d   1      -4.344  59.022 118.378  0.00  0.00     0.028 C 
ATOM     12  C   LIG d   1      -5.280  60.180 118.000  0.00  0.00     0.006 C 
ENDBRANCH   8  11
ENDBRANCH   7   8
ENDBRANCH   1   7
BRANCH   6  13
ATOM     13  N   LIG d   1      -3.088  60.597 121.766  0.00  0.00    -0.311 N 
ATOM     14  C   LIG d   1      -3.908  59.711 122.328  0.00  0.00     0.210 C 
ATOM     15  C   LIG d   1      -5.102  60.316 123.073  0.00  0.00     0.109 C 
ATOM     16  O   LIG d   1      -3.741  58.482 122.309  0.00  0.00    -0.276 OA
ATOM     17  H   LIG d   1      -3.281  61.575 121.859  0.00  0.00     0.149 HD
ENDBRANCH   6  13
BRANCH   5  18
ATOM     18  N   LIG d   1      -0.619  59.219 122.924  0.00  0.00     0.381 N 
ATOM     19  H   LIG d   1      -1.281  59.491 123.624  0.00  0.00    -0.090 HD
ATOM     20  H   LIG d   1       0.290  59.179 123.348  0.00  0.00    -0.090 HD
ATOM     21  H   LIG d   1      -0.862  58.326 122.556  0.00  0.00    -0.090 HD
ENDBRANCH   5  18
BRANCH   3  22
ATOM     22  C   LIG d   1       1.909  61.000 119.266  0.00  0.00     0.382 C 
ATOM     23  O   LIG d   1       2.940  60.843 119.963  0.00  0.00    -0.241 OA
ATOM     24  O   LIG d   1       2.012  61.455 118.111  0.00  0.00    -0.241 OA
ENDBRANCH   3  22
TORSDOF 7
ENDMDL
MODEL 6
REMARK VINA RESULT:      -5.0      2.021      3.367
REMARK  7 active torsions:
REMARK  status: ('A' for Active; 'I' for Inactive)
REMARK    1  A    between atoms: C_2  and  C_3 
REMARK    2  A    between atoms: C_3  and  O_6 
REMARK    3  A    between atoms: C_3  and  C_4 
REMARK    4  A    between atoms: C_7  and  O_6 
REMARK    5  A    between atoms: C_9  and  C_10 
REMARK    6  A    between atoms: N_15  and  C_14 
REMARK    7  A    between atoms: N_20  and  C_19 
REMARK       I    between atoms: C_22  and  N_20 
ROOT
ATOM      1  C   LIG d   1      -2.621  91.889 117.334  0.00  0.00     0.161 C 
ATOM      2  C   LIG d   1      -3.882  92.506 117.290  0.00  0.00     0.016 C 
ATOM      3  C   LIG d   1      -5.027  91.895 116.729  0.00  0.00     0.038 C 
ATOM      4  C   LIG d   1      -5.023  90.557 116.308  0.00  0.00     0.028 C 
ATOM      5  C   LIG d   1      -3.648  90.064 115.870  0.00  0.00    -0.047 C 
ATOM      6  C   LIG d   1      -2.622  90.387 116.980  0.00  0.00     0.091 C 
ENDROOT
BRANCH   1   7
ATOM      7  O   LIG d   1      -2.019  92.098 118.627  0.00  0.00    -0.368 OA
BRANCH   7   8
ATOM      8  C   LIG d   1      -2.422  91.180 119.673  0.00  0.00     0.119 C 
BRANCH   8   9
ATOM      9  C   LIG d   1      -3.120  92.007 120.771  0.00  0.00     0.028 C 
ATOM     10  C   LIG d   1      -4.646  91.821 120.766  0.00  0.00     0.006 C 
ENDBRANCH   8   9
BRANCH   8  11
ATOM     11  C   LIG d   1      -1.207  90.544 120.355  0.00  0.00     0.028 C 
ATOM     12  C   LIG d   1       0.124  91.156 119.891  0.00  0.00     0.006 C 
ENDBRANCH   8  11
ENDBRANCH   7   8
ENDBRANCH   1   7
BRANCH   6  13
ATOM     13  N   LIG d   1      -1.236  90.013 116.597  0.00  0.00    -0.311 N 
ATOM     14  C   LIG d   1      -0.648  88.883 116.984  0.00  0.00     0.210 C 
ATOM     15  C   LIG d   1       0.792  88.703 116.493  0.00  0.00     0.109 C 
ATOM     16  O   LIG d   1      -1.193  87.997 117.660  0.00  0.00    -0.276 OA
ATOM     17  H   LIG d   1      -0.731  90.660 116.023  0.00  0.00     0.149 HD
ENDBRANCH   6  13
BRANCH   5  18
ATOM     18  N   LIG d   1      -3.761  88.620 115.589  0.00  0.00     0.381 N 
ATOM     19  H   LIG d   1      -3.455  88.432 114.655  0.00  0.00    -0.090 HD
ATOM     20  H   LIG d   1      -4.726  88.349 115.665  0.00  0.00    -0.090 HD
ATOM     21  H   LIG d   1      -3.210  88.103 116.238  0.00  0.00    -0.090 HD
ENDBRANCH   5  18
BRANCH   3  22
ATOM     22  C   LIG d   1      -6.184  92.639 116.549  0.00  0.00     0.382 C 
ATOM     23  O   LIG d   1      -6.528  93.482 117.412  0.00  0.00    -0.241 OA
ATOM     24  O   LIG d   1      -6.911  92.446 115.556  0.00  0.00    -0.241 OA
ENDBRANCH   3  22
TORSDOF 7
ENDMDL
MODEL 7
REMARK VINA RESULT:      -4.9     30.752     32.025
REMARK  7 active torsions:
REMARK  status: ('A' for Active; 'I' for Inactive)
REMARK    1  A    between atoms: C_2  and  C_3 
REMARK    2  A    between atoms: C_3  and  O_6 
REMARK    3  A    between atoms: C_3  and  C_4 
REMARK    4  A    between atoms: C_7  and  O_6 
REMARK    5  A    between atoms: C_9  and  C_10 
REMARK    6  A    between atoms: N_15  and  C_14 
REMARK    7  A    between atoms: N_20  and  C_19 
REMARK       I    between atoms: C_22  and  N_20 
ROOT
ATOM      1  C   LIG d   1      -1.578  60.574 120.029  0.00  0.00     0.161 C 
ATOM      2  C   LIG d   1      -2.292  60.031 118.947  0.00  0.00     0.016 C 
ATOM      3  C   LIG d   1      -1.694  59.691 117.712  0.00  0.00     0.038 C 
ATOM      4  C   LIG d   1      -0.304  59.731 117.526  0.00  0.00     0.028 C 
ATOM      5  C   LIG d   1       0.398  60.749 118.419  0.00  0.00    -0.047 C 
ATOM      6  C   LIG d   1      -0.043  60.521 119.882  0.00  0.00     0.091 C 
ENDROOT
BRANCH   1   7
ATOM      7  O   LIG d   1      -1.987  59.934 121.254  0.00  0.00    -0.368 OA
BRANCH   7   8
ATOM      8  C   LIG d   1      -3.319  59.363 121.262  0.00  0.00     0.119 C 
BRANCH   8   9
ATOM      9  C   LIG d   1      -4.177  60.203 122.228  0.00  0.00     0.028 C 
ATOM     10  C   LIG d   1      -3.331  60.915 123.297  0.00  0.00     0.006 C 
ENDBRANCH   8   9
BRANCH   8  11
ATOM     11  C   LIG d   1      -3.315  57.949 121.848  0.00  0.00     0.028 C 
ATOM     12  C   LIG d   1      -3.099  56.862 120.783  0.00  0.00     0.006 C 
ENDBRANCH   8  11
ENDBRANCH   7   8
ENDBRANCH   1   7
BRANCH   6  13
ATOM     13  N   LIG d   1       0.532  61.528 120.811  0.00  0.00    -0.311 N 
ATOM     14  C   LIG d   1       1.661  61.338 121.492  0.00  0.00     0.210 C 
ATOM     15  C   LIG d   1       2.066  62.495 122.409  0.00  0.00     0.109 C 
ATOM     16  O   LIG d   1       2.383  60.333 121.398  0.00  0.00    -0.276 OA
ATOM     17  H   LIG d   1       0.027  62.386 120.924  0.00  0.00     0.149 HD
ENDBRANCH   6  13
BRANCH   5  18
ATOM     18  N   LIG d   1       1.851  60.589 118.221  0.00  0.00     0.381 N 
ATOM     19  H   LIG d   1       2.339  60.878 119.045  0.00  0.00    -0.090 HD
ATOM     20  H   LIG d   1       2.142  61.176 117.460  0.00  0.00    -0.090 HD
ATOM     21  H   LIG d   1       2.064  59.637 118.016  0.00  0.00    -0.090 HD
ENDBRANCH   5  18
BRANCH   3  22
ATOM     22  C   LIG d   1      -2.493  59.344 116.634  0.00  0.00     0.382 C 
ATOM     23  O   LIG d   1      -2.621  60.134 115.668  0.00  0.00    -0.241 OA
ATOM     24  O   LIG d   1      -3.123  58.269 116.635  0.00  0.00    -0.241 OA
ENDBRANCH   3  22
TORSDOF 7
ENDMDL
MODEL 8
REMARK VINA RESULT:      -4.8      1.580      1.833
REMARK  7 active torsions:
REMARK  status: ('A' for Active; 'I' for Inactive)
REMARK    1  A    between atoms: C_2  and  C_3 
REMARK    2  A    between atoms: C_3  and  O_6 
REMARK    3  A    between atoms: C_3  and  C_4 
REMARK    4  A    between atoms: C_7  and  O_6 
REMARK    5  A    between atoms: C_9  and  C_10 
REMARK    6  A    between atoms: N_15  and  C_14 
REMARK    7  A    between atoms: N_20  and  C_19 
REMARK       I    between atoms: C_22  and  N_20 
ROOT
ATOM      1  C   LIG d   1      -3.382  92.407 117.652  0.00  0.00     0.161 C 
ATOM      2  C   LIG d   1      -4.588  92.507 116.937  0.00  0.00     0.016 C 
ATOM      3  C   LIG d   1      -5.119  91.455 116.157  0.00  0.00     0.038 C 
ATOM      4  C   LIG d   1      -4.554  90.171 116.161  0.00  0.00     0.028 C 
ATOM      5  C   LIG d   1      -3.060  90.167 116.466  0.00  0.00    -0.047 C 
ATOM      6  C   LIG d   1      -2.810  90.978 117.758  0.00  0.00     0.091 C 
ENDROOT
BRANCH   1   7
ATOM      7  O   LIG d   1      -3.544  92.980 118.965  0.00  0.00    -0.368 OA
BRANCH   7   8
ATOM      8  C   LIG d   1      -4.789  92.681 119.642  0.00  0.00     0.119 C 
BRANCH   8   9
ATOM      9  C   LIG d   1      -5.311  93.995 120.254  0.00  0.00     0.028 C 
ATOM     10  C   LIG d   1      -4.478  95.214 119.824  0.00  0.00     0.006 C 
ENDBRANCH   8   9
BRANCH   8  11
ATOM     11  C   LIG d   1      -4.564  91.741 120.831  0.00  0.00     0.028 C 
ATOM     12  C   LIG d   1      -3.188  91.930 121.488  0.00  0.00     0.006 C 
ENDBRANCH   8  11
ENDBRANCH   7   8
ENDBRANCH   1   7
BRANCH   6  13
ATOM     13  N   LIG d   1      -1.364  91.096 118.082  0.00  0.00    -0.311 N 
ATOM     14  C   LIG d   1      -0.739  90.299 118.946  0.00  0.00     0.210 C 
ATOM     15  C   LIG d   1       0.748  90.604 119.150  0.00  0.00     0.109 C 
ATOM     16  O   LIG d   1      -1.268  89.347 119.540  0.00  0.00    -0.276 OA
ATOM     17  H   LIG d   1      -0.851  91.822 117.621  0.00  0.00     0.149 HD
ENDBRANCH   6  13
BRANCH   5  18
ATOM     18  N   LIG d   1      -2.631  88.760 116.574  0.00  0.00     0.381 N 
ATOM     19  H   LIG d   1      -2.713  88.311 115.684  0.00  0.00    -0.090 HD
ATOM     20  H   LIG d   1      -3.234  88.285 117.223  0.00  0.00    -0.090 HD
ATOM     21  H   LIG d   1      -1.688  88.715 116.892  0.00  0.00    -0.090 HD
ENDBRANCH   5  18
BRANCH   3  22
ATOM     22  C   LIG d   1      -6.207  91.694 115.331  0.00  0.00     0.382 C 
ATOM     23  O   LIG d   1      -6.200  92.680 114.556  0.00  0.00    -0.241 OA
ATOM     24  O   LIG d   1      -7.212  90.960 115.382  0.00  0.00    -0.241 OA
ENDBRANCH   3  22
TORSDOF 7
ENDMDL
MODEL 9
REMARK VINA RESULT:      -4.8      2.138      3.952
REMARK  7 active torsions:
REMARK  status: ('A' for Active; 'I' for Inactive)
REMARK    1  A    between atoms: C_2  and  C_3 
REMARK    2  A    between atoms: C_3  and  O_6 
REMARK    3  A    between atoms: C_3  and  C_4 
REMARK    4  A    between atoms: C_7  and  O_6 
REMARK    5  A    between atoms: C_9  and  C_10 
REMARK    6  A    between atoms: N_15  and  C_14 
REMARK    7  A    between atoms: N_20  and  C_19 
REMARK       I    between atoms: C_22  and  N_20 
ROOT
ATOM      1  C   LIG d   1      -2.506  91.971 117.328  0.00  0.00     0.161 C 
ATOM      2  C   LIG d   1      -3.771  92.583 117.323  0.00  0.00     0.016 C 
ATOM      3  C   LIG d   1      -4.937  91.957 116.826  0.00  0.00     0.038 C 
ATOM      4  C   LIG d   1      -4.946  90.609 116.436  0.00  0.00     0.028 C 
ATOM      5  C   LIG d   1      -3.589  90.110 115.952  0.00  0.00    -0.047 C 
ATOM      6  C   LIG d   1      -2.518  90.461 117.010  0.00  0.00     0.091 C 
ENDROOT
BRANCH   1   7
ATOM      7  O   LIG d   1      -1.852  92.212 118.590  0.00  0.00    -0.368 OA
BRANCH   7   8
ATOM      8  C   LIG d   1      -0.751  93.154 118.567  0.00  0.00     0.119 C 
BRANCH   8   9
ATOM      9  C   LIG d   1       0.543  92.360 118.834  0.00  0.00     0.028 C 
ATOM     10  C   LIG d   1       0.317  91.173 119.785  0.00  0.00     0.006 C 
ENDBRANCH   8   9
BRANCH   8  11
ATOM     11  C   LIG d   1      -0.855  94.160 119.717  0.00  0.00     0.028 C 
ATOM     12  C   LIG d   1      -2.048  95.116 119.567  0.00  0.00     0.006 C 
ENDBRANCH   8  11
ENDBRANCH   7   8
ENDBRANCH   1   7
BRANCH   6  13
ATOM     13  N   LIG d   1      -1.148  90.082 116.577  0.00  0.00    -0.311 N 
ATOM     14  C   LIG d   1      -0.552  88.946 116.937  0.00  0.00     0.210 C 
ATOM     15  C   LIG d   1       0.869  88.761 116.396  0.00  0.00     0.109 C 
ATOM     16  O   LIG d   1      -1.079  88.060 117.627  0.00  0.00    -0.276 OA
ATOM     17  H   LIG d   1      -0.660  90.730 115.989  0.00  0.00     0.149 HD
ENDBRANCH   6  13
BRANCH   5  18
ATOM     18  N   LIG d   1      -3.708  88.660 115.709  0.00  0.00     0.381 N 
ATOM     19  H   LIG d   1      -4.602  88.336 116.022  0.00  0.00    -0.090 HD
ATOM     20  H   LIG d   1      -2.998  88.182 116.236  0.00  0.00    -0.090 HD
ATOM     21  H   LIG d   1      -3.598  88.466 114.738  0.00  0.00    -0.090 HD
ENDBRANCH   5  18
BRANCH   3  22
ATOM     22  C   LIG d   1      -6.102  92.693 116.678  0.00  0.00     0.382 C 
ATOM     23  O   LIG d   1      -6.410  93.558 117.533  0.00  0.00    -0.241 OA
ATOM     24  O   LIG d   1      -6.872  92.472 115.724  0.00  0.00    -0.241 OA
ENDBRANCH   3  22
TORSDOF 7
ENDMDL
