MODEL 1
REMARK VINA RESULT:      -4.7      0.000      0.000
REMARK  7 active torsions:
REMARK  status: ('A' for Active; 'I' for Inactive)
REMARK    1  A    between atoms: C_2  and  C_3 
REMARK    2  A    between atoms: C_3  and  O_6 
REMARK    3  A    between atoms: C_3  and  C_4 
REMARK    4  A    between atoms: C_7  and  O_6 
REMARK    5  A    between atoms: C_9  and  C_10 
REMARK    6  A    between atoms: N_15  and  C_14 
REMARK    7  A    between atoms: N_20  and  C_19 
REMARK       I    between atoms: C_22  and  N_20 
ROOT
ATOM      1  C   LIG d   1      -3.515  93.108 117.931  0.00  0.00     0.161 C 
ATOM      2  C   LIG d   1      -4.913  93.042 117.809  0.00  0.00     0.016 C 
ATOM      3  C   LIG d   1      -5.628  91.827 117.701  0.00  0.00     0.038 C 
ATOM      4  C   LIG d   1      -5.003  90.582 117.861  0.00  0.00     0.028 C 
ATOM      5  C   LIG d   1      -3.526  90.593 117.481  0.00  0.00    -0.047 C 
ATOM      6  C   LIG d   1      -2.826  91.757 118.219  0.00  0.00     0.091 C 
ENDROOT
BRANCH   1   7
ATOM      7  O   LIG d   1      -3.157  94.077 118.936  0.00  0.00    -0.368 OA
BRANCH   7   8
ATOM      8  C   LIG d   1      -3.572  93.773 120.290  0.00  0.00     0.119 C 
BRANCH   8   9
ATOM      9  C   LIG d   1      -4.287  95.020 120.846  0.00  0.00     0.028 C 
ATOM     10  C   LIG d   1      -4.252  96.203 119.864  0.00  0.00     0.006 C 
ENDBRANCH   8   9
BRANCH   8  11
ATOM     11  C   LIG d   1      -2.365  93.555 121.207  0.00  0.00     0.028 C 
ATOM     12  C   LIG d   1      -1.088  94.232 120.683  0.00  0.00     0.006 C 
ENDBRANCH   8  11
ENDBRANCH   7   8
ENDBRANCH   1   7
BRANCH   6  13
ATOM     13  N   LIG d   1      -1.396  91.891 117.838  0.00  0.00    -0.311 N 
ATOM     14  C   LIG d   1      -0.402  91.308 118.506  0.00  0.00     0.210 C 
ATOM     15  C   LIG d   1       1.000  91.592 117.957  0.00  0.00     0.109 C 
ATOM     16  O   LIG d   1      -0.551  90.556 119.481  0.00  0.00    -0.276 OA
ATOM     17  H   LIG d   1      -1.188  92.459 117.040  0.00  0.00     0.149 HD
ENDBRANCH   6  13
BRANCH   5  18
ATOM     18  N   LIG d   1      -2.967  89.272 117.826  0.00  0.00     0.381 N 
ATOM     19  H   LIG d   1      -2.708  88.785 116.991  0.00  0.00    -0.090 HD
ATOM     20  H   LIG d   1      -3.672  88.734 118.299  0.00  0.00    -0.090 HD
ATOM     21  H   LIG d   1      -2.172  89.381 118.416  0.00  0.00    -0.090 HD
ENDBRANCH   5  18
BRANCH   3  22
ATOM     22  C   LIG d   1      -6.979  91.851 117.391  0.00  0.00     0.382 C 
ATOM     23  O   LIG d   1      -7.598  92.942 117.364  0.00  0.00    -0.241 OA
ATOM     24  O   LIG d   1      -7.598  90.790 117.181  0.00  0.00    -0.241 OA
ENDBRANCH   3  22
TORSDOF 7
ENDMDL
MODEL 2
REMARK VINA RESULT:      -4.7     29.789     31.718
REMARK  7 active torsions:
REMARK  status: ('A' for Active; 'I' for Inactive)
REMARK    1  A    between atoms: C_2  and  C_3 
REMARK    2  A    between atoms: C_3  and  O_6 
REMARK    3  A    between atoms: C_3  and  C_4 
REMARK    4  A    between atoms: C_7  and  O_6 
REMARK    5  A    between atoms: C_9  and  C_10 
REMARK    6  A    between atoms: N_15  and  C_14 
REMARK    7  A    between atoms: N_20  and  C_19 
REMARK       I    between atoms: C_22  and  N_20 
ROOT
ATOM      1  C   LIG d   1       0.006  60.991 121.560  0.00  0.00     0.161 C 
ATOM      2  C   LIG d   1       0.324  60.735 120.216  0.00  0.00     0.016 C 
ATOM      3  C   LIG d   1      -0.613  60.253 119.273  0.00  0.00     0.038 C 
ATOM      4  C   LIG d   1      -1.977  60.137 119.576  0.00  0.00     0.028 C 
ATOM      5  C   LIG d   1      -2.251  59.904 121.058  0.00  0.00    -0.047 C 
ATOM      6  C   LIG d   1      -1.503  60.977 121.882  0.00  0.00     0.091 C 
ENDROOT
BRANCH   1   7
ATOM      7  O   LIG d   1       0.594  62.241 121.972  0.00  0.00    -0.368 OA
BRANCH   7   8
ATOM      8  C   LIG d   1       1.597  62.161 123.014  0.00  0.00     0.119 C 
BRANCH   8   9
ATOM      9  C   LIG d   1       1.276  63.255 124.051  0.00  0.00     0.028 C 
ATOM     10  C   LIG d   1       0.648  64.504 123.410  0.00  0.00     0.006 C 
ENDBRANCH   8   9
BRANCH   8  11
ATOM     11  C   LIG d   1       2.989  62.508 122.477  0.00  0.00     0.028 C 
ATOM     12  C   LIG d   1       3.740  61.283 121.932  0.00  0.00     0.006 C 
ENDBRANCH   8  11
ENDBRANCH   7   8
ENDBRANCH   1   7
BRANCH   6  13
ATOM     13  N   LIG d   1      -1.649  60.771 123.347  0.00  0.00    -0.311 N 
ATOM     14  C   LIG d   1      -2.139  61.695 124.172  0.00  0.00     0.210 C 
ATOM     15  C   LIG d   1      -2.184  61.285 125.647  0.00  0.00     0.109 C 
ATOM     16  O   LIG d   1      -2.570  62.802 123.817  0.00  0.00    -0.276 OA
ATOM     17  H   LIG d   1      -1.353  59.888 123.715  0.00  0.00     0.149 HD
ENDBRANCH   6  13
BRANCH   5  18
ATOM     18  N   LIG d   1      -3.713  59.941 121.253  0.00  0.00     0.381 N 
ATOM     19  H   LIG d   1      -4.083  59.012 121.219  0.00  0.00    -0.090 HD
ATOM     20  H   LIG d   1      -4.127  60.472 120.507  0.00  0.00    -0.090 HD
ATOM     21  H   LIG d   1      -3.930  60.360 122.130  0.00  0.00    -0.090 HD
ENDBRANCH   5  18
BRANCH   3  22
ATOM     22  C   LIG d   1      -0.179  59.842 118.022  0.00  0.00     0.382 C 
ATOM     23  O   LIG d   1      -0.126  58.619 117.746  0.00  0.00    -0.241 OA
ATOM     24  O   LIG d   1       0.203  60.677 117.180  0.00  0.00    -0.241 OA
ENDBRANCH   3  22
TORSDOF 7
ENDMDL
MODEL 3
REMARK VINA RESULT:      -4.6     11.725     13.994
REMARK  7 active torsions:
REMARK  status: ('A' for Active; 'I' for Inactive)
REMARK    1  A    between atoms: C_2  and  C_3 
REMARK    2  A    between atoms: C_3  and  O_6 
REMARK    3  A    between atoms: C_3  and  C_4 
REMARK    4  A    between atoms: C_7  and  O_6 
REMARK    5  A    between atoms: C_9  and  C_10 
REMARK    6  A    between atoms: N_15  and  C_14 
REMARK    7  A    between atoms: N_20  and  C_19 
REMARK       I    between atoms: C_22  and  N_20 
ROOT
ATOM      1  C   LIG d   1      -8.395  79.977 119.488  0.00  0.00     0.161 C 
ATOM      2  C   LIG d   1      -8.888  78.980 118.631  0.00  0.00     0.016 C 
ATOM      3  C   LIG d   1      -9.042  77.628 119.017  0.00  0.00     0.038 C 
ATOM      4  C   LIG d   1      -8.854  77.209 120.342  0.00  0.00     0.028 C 
ATOM      5  C   LIG d   1      -7.873  78.080 121.119  0.00  0.00    -0.047 C 
ATOM      6  C   LIG d   1      -8.290  79.561 120.971  0.00  0.00     0.091 C 
ENDROOT
BRANCH   1   7
ATOM      7  O   LIG d   1      -9.192  81.171 119.358  0.00  0.00    -0.368 OA
BRANCH   7   8
ATOM      8  C   LIG d   1      -8.570  82.280 118.664  0.00  0.00     0.119 C 
BRANCH   8   9
ATOM      9  C   LIG d   1      -9.162  82.327 117.242  0.00  0.00     0.028 C 
ATOM     10  C   LIG d   1     -10.681  82.085 117.231  0.00  0.00     0.006 C 
ENDBRANCH   8   9
BRANCH   8  11
ATOM     11  C   LIG d   1      -7.069  82.044 118.470  0.00  0.00     0.028 C 
ATOM     12  C   LIG d   1      -6.203  83.009 119.296  0.00  0.00     0.006 C 
ENDBRANCH   8  11
ENDBRANCH   7   8
ENDBRANCH   1   7
BRANCH   6  13
ATOM     13  N   LIG d   1      -7.334  80.488 121.631  0.00  0.00    -0.311 N 
ATOM     14  C   LIG d   1      -7.713  81.494 122.418  0.00  0.00     0.210 C 
ATOM     15  C   LIG d   1      -6.568  82.341 122.982  0.00  0.00     0.109 C 
ATOM     16  O   LIG d   1      -8.887  81.745 122.729  0.00  0.00    -0.276 OA
ATOM     17  H   LIG d   1      -6.359  80.338 121.458  0.00  0.00     0.149 HD
ENDBRANCH   6  13
BRANCH   5  18
ATOM     18  N   LIG d   1      -7.877  77.616 122.519  0.00  0.00     0.381 N 
ATOM     19  H   LIG d   1      -7.149  76.942 122.655  0.00  0.00    -0.090 HD
ATOM     20  H   LIG d   1      -8.757  77.173 122.712  0.00  0.00    -0.090 HD
ATOM     21  H   LIG d   1      -7.743  78.388 123.135  0.00  0.00    -0.090 HD
ENDBRANCH   5  18
BRANCH   3  22
ATOM     22  C   LIG d   1      -9.350  76.672 118.061  0.00  0.00     0.382 C 
ATOM     23  O   LIG d   1      -8.431  76.099 117.428  0.00  0.00    -0.241 OA
ATOM     24  O   LIG d   1     -10.537  76.406 117.793  0.00  0.00    -0.241 OA
ENDBRANCH   3  22
TORSDOF 7
ENDMDL
MODEL 4
REMARK VINA RESULT:      -4.6      2.394      4.345
REMARK  7 active torsions:
REMARK  status: ('A' for Active; 'I' for Inactive)
REMARK    1  A    between atoms: C_2  and  C_3 
REMARK    2  A    between atoms: C_3  and  O_6 
REMARK    3  A    between atoms: C_3  and  C_4 
REMARK    4  A    between atoms: C_7  and  O_6 
REMARK    5  A    between atoms: C_9  and  C_10 
REMARK    6  A    between atoms: N_15  and  C_14 
REMARK    7  A    between atoms: N_20  and  C_19 
REMARK       I    between atoms: C_22  and  N_20 
ROOT
ATOM      1  C   LIG d   1      -4.204  93.102 118.990  0.00  0.00     0.161 C 
ATOM      2  C   LIG d   1      -5.432  92.724 118.421  0.00  0.00     0.016 C 
ATOM      3  C   LIG d   1      -6.580  93.549 118.428  0.00  0.00     0.038 C 
ATOM      4  C   LIG d   1      -6.535  94.879 118.873  0.00  0.00     0.028 C 
ATOM      5  C   LIG d   1      -5.451  95.132 119.915  0.00  0.00    -0.047 C 
ATOM      6  C   LIG d   1      -4.105  94.592 119.381  0.00  0.00     0.091 C 
ENDROOT
BRANCH   1   7
ATOM      7  O   LIG d   1      -3.125  92.744 118.105  0.00  0.00    -0.368 OA
BRANCH   7   8
ATOM      8  C   LIG d   1      -2.128  91.843 118.648  0.00  0.00     0.119 C 
BRANCH   8   9
ATOM      9  C   LIG d   1      -0.745  92.468 118.379  0.00  0.00     0.028 C 
ATOM     10  C   LIG d   1      -0.835  93.754 117.540  0.00  0.00     0.006 C 
ENDBRANCH   8   9
BRANCH   8  11
ATOM     11  C   LIG d   1      -2.121  90.505 117.904  0.00  0.00     0.028 C 
ATOM     12  C   LIG d   1      -3.178  89.523 118.433  0.00  0.00     0.006 C 
ENDBRANCH   8  11
ENDBRANCH   7   8
ENDBRANCH   1   7
BRANCH   6  13
ATOM     13  N   LIG d   1      -3.007  94.724 120.374  0.00  0.00    -0.311 N 
ATOM     14  C   LIG d   1      -2.142  95.737 120.380  0.00  0.00     0.210 C 
ATOM     15  C   LIG d   1      -1.076  95.669 121.478  0.00  0.00     0.109 C 
ATOM     16  O   LIG d   1      -2.176  96.701 119.601  0.00  0.00    -0.276 OA
ATOM     17  H   LIG d   1      -2.925  94.001 121.062  0.00  0.00     0.149 HD
ENDBRANCH   6  13
BRANCH   5  18
ATOM     18  N   LIG d   1      -5.425  96.581 120.188  0.00  0.00     0.381 N 
ATOM     19  H   LIG d   1      -5.352  96.739 121.173  0.00  0.00    -0.090 HD
ATOM     20  H   LIG d   1      -6.286  96.988 119.866  0.00  0.00    -0.090 HD
ATOM     21  H   LIG d   1      -4.655  97.003 119.718  0.00  0.00    -0.090 HD
ENDBRANCH   5  18
BRANCH   3  22
ATOM     22  C   LIG d   1      -7.801  93.031 118.021  0.00  0.00     0.382 C 
ATOM     23  O   LIG d   1      -7.870  91.856 117.588  0.00  0.00    -0.241 OA
ATOM     24  O   LIG d   1      -8.825  93.739 118.042  0.00  0.00    -0.241 OA
ENDBRANCH   3  22
TORSDOF 7
ENDMDL
MODEL 5
REMARK VINA RESULT:      -4.6     12.966     15.576
REMARK  7 active torsions:
REMARK  status: ('A' for Active; 'I' for Inactive)
REMARK    1  A    between atoms: C_2  and  C_3 
REMARK    2  A    between atoms: C_3  and  O_6 
REMARK    3  A    between atoms: C_3  and  C_4 
REMARK    4  A    between atoms: C_7  and  O_6 
REMARK    5  A    between atoms: C_9  and  C_10 
REMARK    6  A    between atoms: N_15  and  C_14 
REMARK    7  A    between atoms: N_20  and  C_19 
REMARK       I    between atoms: C_22  and  N_20 
ROOT
ATOM      1  C   LIG d   1      -9.131  78.634 119.873  0.00  0.00     0.161 C 
ATOM      2  C   LIG d   1     -10.062  77.980 120.697  0.00  0.00     0.016 C 
ATOM      3  C   LIG d   1     -10.858  78.648 121.655  0.00  0.00     0.038 C 
ATOM      4  C   LIG d   1     -10.886  80.047 121.750  0.00  0.00     0.028 C 
ATOM      5  C   LIG d   1      -9.594  80.712 121.287  0.00  0.00    -0.047 C 
ATOM      6  C   LIG d   1      -9.228  80.174 119.884  0.00  0.00     0.091 C 
ENDROOT
BRANCH   1   7
ATOM      7  O   LIG d   1      -9.237  78.136 118.524  0.00  0.00    -0.368 OA
BRANCH   7   8
ATOM      8  C   LIG d   1      -8.600  76.861 118.264  0.00  0.00     0.119 C 
BRANCH   8   9
ATOM      9  C   LIG d   1      -7.497  77.100 117.216  0.00  0.00     0.028 C 
ATOM     10  C   LIG d   1      -6.211  77.672 117.837  0.00  0.00     0.006 C 
ENDBRANCH   8   9
BRANCH   8  11
ATOM     11  C   LIG d   1      -9.574  75.875 117.611  0.00  0.00     0.028 C 
ATOM     12  C   LIG d   1      -9.027  74.439 117.567  0.00  0.00     0.006 C 
ENDBRANCH   8  11
ENDBRANCH   7   8
ENDBRANCH   1   7
BRANCH   6  13
ATOM     13  N   LIG d   1      -7.932  80.710 119.393  0.00  0.00    -0.311 N 
ATOM     14  C   LIG d   1      -7.769  81.234 118.179  0.00  0.00     0.210 C 
ATOM     15  C   LIG d   1      -6.346  81.709 117.866  0.00  0.00     0.109 C 
ATOM     16  O   LIG d   1      -8.674  81.379 117.344  0.00  0.00    -0.276 OA
ATOM     17  H   LIG d   1      -7.152  80.661 120.018  0.00  0.00     0.149 HD
ENDBRANCH   6  13
BRANCH   5  18
ATOM     18  N   LIG d   1      -9.811  82.171 121.309  0.00  0.00     0.381 N 
ATOM     19  H   LIG d   1      -9.791  82.502 122.253  0.00  0.00    -0.090 HD
ATOM     20  H   LIG d   1     -10.717  82.371 120.923  0.00  0.00    -0.090 HD
ATOM     21  H   LIG d   1      -9.106  82.628 120.774  0.00  0.00    -0.090 HD
ENDBRANCH   5  18
BRANCH   3  22
ATOM     22  C   LIG d   1     -11.609  77.911 122.559  0.00  0.00     0.382 C 
ATOM     23  O   LIG d   1     -12.781  78.263 122.834  0.00  0.00    -0.241 OA
ATOM     24  O   LIG d   1     -11.113  76.925 123.136  0.00  0.00    -0.241 OA
ENDBRANCH   3  22
TORSDOF 7
ENDMDL
MODEL 6
REMARK VINA RESULT:      -4.5     27.783     29.841
REMARK  7 active torsions:
REMARK  status: ('A' for Active; 'I' for Inactive)
REMARK    1  A    between atoms: C_2  and  C_3 
REMARK    2  A    between atoms: C_3  and  O_6 
REMARK    3  A    between atoms: C_3  and  C_4 
REMARK    4  A    between atoms: C_7  and  O_6 
REMARK    5  A    between atoms: C_9  and  C_10 
REMARK    6  A    between atoms: N_15  and  C_14 
REMARK    7  A    between atoms: N_20  and  C_19 
REMARK       I    between atoms: C_22  and  N_20 
ROOT
ATOM      1  C   LIG d   1     -13.185  64.889 120.080  0.00  0.00     0.161 C 
ATOM      2  C   LIG d   1     -12.116  64.066 120.473  0.00  0.00     0.016 C 
ATOM      3  C   LIG d   1     -11.343  64.296 121.634  0.00  0.00     0.038 C 
ATOM      4  C   LIG d   1     -11.685  65.284 122.569  0.00  0.00     0.028 C 
ATOM      5  C   LIG d   1     -12.449  66.455 121.960  0.00  0.00    -0.047 C 
ATOM      6  C   LIG d   1     -13.643  65.907 121.146  0.00  0.00     0.091 C 
ENDROOT
BRANCH   1   7
ATOM      7  O   LIG d   1     -14.296  64.076 119.653  0.00  0.00    -0.368 OA
BRANCH   7   8
ATOM      8  C   LIG d   1     -14.343  63.752 118.242  0.00  0.00     0.119 C 
BRANCH   8   9
ATOM      9  C   LIG d   1     -14.793  65.021 117.491  0.00  0.00     0.028 C 
ATOM     10  C   LIG d   1     -16.323  65.162 117.441  0.00  0.00     0.006 C 
ENDBRANCH   8   9
BRANCH   8  11
ATOM     11  C   LIG d   1     -15.420  62.704 117.947  0.00  0.00     0.028 C 
ATOM     12  C   LIG d   1     -15.623  61.716 119.107  0.00  0.00     0.006 C 
ENDBRANCH   8  11
ENDBRANCH   7   8
ENDBRANCH   1   7
BRANCH   6  13
ATOM     13  N   LIG d   1     -14.395  66.982 120.448  0.00  0.00    -0.311 N 
ATOM     14  C   LIG d   1     -15.717  67.122 120.528  0.00  0.00     0.210 C 
ATOM     15  C   LIG d   1     -16.294  68.285 119.714  0.00  0.00     0.109 C 
ATOM     16  O   LIG d   1     -16.463  66.414 121.221  0.00  0.00    -0.276 OA
ATOM     17  H   LIG d   1     -13.864  67.620 119.888  0.00  0.00     0.149 HD
ENDBRANCH   6  13
BRANCH   5  18
ATOM     18  N   LIG d   1     -12.861  67.341 123.066  0.00  0.00     0.381 N 
ATOM     19  H   LIG d   1     -13.647  66.945 123.542  0.00  0.00    -0.090 HD
ATOM     20  H   LIG d   1     -13.138  68.229 122.685  0.00  0.00    -0.090 HD
ATOM     21  H   LIG d   1     -12.106  67.466 123.703  0.00  0.00    -0.090 HD
ENDBRANCH   5  18
BRANCH   3  22
ATOM     22  C   LIG d   1     -10.189  63.557 121.849  0.00  0.00     0.382 C 
ATOM     23  O   LIG d   1      -9.414  63.313 120.893  0.00  0.00    -0.241 OA
ATOM     24  O   LIG d   1      -9.936  63.095 122.977  0.00  0.00    -0.241 OA
ENDBRANCH   3  22
TORSDOF 7
ENDMDL
MODEL 7
REMARK VINA RESULT:      -4.4     25.731     28.085
REMARK  7 active torsions:
REMARK  status: ('A' for Active; 'I' for Inactive)
REMARK    1  A    between atoms: C_2  and  C_3 
REMARK    2  A    between atoms: C_3  and  O_6 
REMARK    3  A    between atoms: C_3  and  C_4 
REMARK    4  A    between atoms: C_7  and  O_6 
REMARK    5  A    between atoms: C_9  and  C_10 
REMARK    6  A    between atoms: N_15  and  C_14 
REMARK    7  A    between atoms: N_20  and  C_19 
REMARK       I    between atoms: C_22  and  N_20 
ROOT
ATOM      1  C   LIG d   1     -13.391  66.460 121.875  0.00  0.00     0.161 C 
ATOM      2  C   LIG d   1     -12.362  66.016 122.721  0.00  0.00     0.016 C 
ATOM      3  C   LIG d   1     -11.494  64.947 122.396  0.00  0.00     0.038 C 
ATOM      4  C   LIG d   1     -11.501  64.345 121.129  0.00  0.00     0.028 C 
ATOM      5  C   LIG d   1     -12.854  64.422 120.430  0.00  0.00    -0.047 C 
ATOM      6  C   LIG d   1     -13.343  65.888 120.442  0.00  0.00     0.091 C 
ENDROOT
BRANCH   1   7
ATOM      7  O   LIG d   1     -13.407  67.900 121.839  0.00  0.00    -0.368 OA
BRANCH   7   8
ATOM      8  C   LIG d   1     -13.645  68.567 123.103  0.00  0.00     0.119 C 
BRANCH   8   9
ATOM      9  C   LIG d   1     -14.988  69.313 122.987  0.00  0.00     0.028 C 
ATOM     10  C   LIG d   1     -15.915  68.694 121.928  0.00  0.00     0.006 C 
ENDBRANCH   8   9
BRANCH   8  11
ATOM     11  C   LIG d   1     -12.598  69.654 123.366  0.00  0.00     0.028 C 
ATOM     12  C   LIG d   1     -13.223  71.039 123.597  0.00  0.00     0.006 C 
ENDBRANCH   8  11
ENDBRANCH   7   8
ENDBRANCH   1   7
BRANCH   6  13
ATOM     13  N   LIG d   1     -14.699  66.038 119.852  0.00  0.00    -0.311 N 
ATOM     14  C   LIG d   1     -14.969  66.854 118.834  0.00  0.00     0.210 C 
ATOM     15  C   LIG d   1     -16.436  66.872 118.392  0.00  0.00     0.109 C 
ATOM     16  O   LIG d   1     -14.127  67.539 118.234  0.00  0.00    -0.276 OA
ATOM     17  H   LIG d   1     -15.436  65.496 120.258  0.00  0.00     0.149 HD
ENDBRANCH   6  13
BRANCH   5  18
ATOM     18  N   LIG d   1     -12.684  63.880 119.068  0.00  0.00     0.381 N 
ATOM     19  H   LIG d   1     -12.475  64.624 118.432  0.00  0.00    -0.090 HD
ATOM     20  H   LIG d   1     -13.544  63.450 118.779  0.00  0.00    -0.090 HD
ATOM     21  H   LIG d   1     -11.948  63.209 119.058  0.00  0.00    -0.090 HD
ENDBRANCH   5  18
BRANCH   3  22
ATOM     22  C   LIG d   1     -10.633  64.445 123.360  0.00  0.00     0.382 C 
ATOM     23  O   LIG d   1      -9.454  64.867 123.428  0.00  0.00    -0.241 OA
ATOM     24  O   LIG d   1     -11.007  63.542 124.132  0.00  0.00    -0.241 OA
ENDBRANCH   3  22
TORSDOF 7
ENDMDL
MODEL 8
REMARK VINA RESULT:      -4.4     31.316     33.436
REMARK  7 active torsions:
REMARK  status: ('A' for Active; 'I' for Inactive)
REMARK    1  A    between atoms: C_2  and  C_3 
REMARK    2  A    between atoms: C_3  and  O_6 
REMARK    3  A    between atoms: C_3  and  C_4 
REMARK    4  A    between atoms: C_7  and  O_6 
REMARK    5  A    between atoms: C_9  and  C_10 
REMARK    6  A    between atoms: N_15  and  C_14 
REMARK    7  A    between atoms: N_20  and  C_19 
REMARK       I    between atoms: C_22  and  N_20 
ROOT
ATOM      1  C   LIG d   1      -2.397  59.946 120.006  0.00  0.00     0.161 C 
ATOM      2  C   LIG d   1      -1.691  60.946 120.695  0.00  0.00     0.016 C 
ATOM      3  C   LIG d   1      -1.800  61.156 122.089  0.00  0.00     0.038 C 
ATOM      4  C   LIG d   1      -2.513  60.277 122.917  0.00  0.00     0.028 C 
ATOM      5  C   LIG d   1      -3.648  59.554 122.199  0.00  0.00    -0.047 C 
ATOM      6  C   LIG d   1      -3.093  58.907 120.909  0.00  0.00     0.091 C 
ENDROOT
BRANCH   1   7
ATOM      7  O   LIG d   1      -1.522  59.289 119.068  0.00  0.00    -0.368 OA
BRANCH   7   8
ATOM      8  C   LIG d   1      -0.138  59.155 119.474  0.00  0.00     0.119 C 
BRANCH   8   9
ATOM      9  C   LIG d   1       0.733  59.346 118.217  0.00  0.00     0.028 C 
ATOM     10  C   LIG d   1       0.454  60.682 117.507  0.00  0.00     0.006 C 
ENDBRANCH   8   9
BRANCH   8  11
ATOM     11  C   LIG d   1       0.165  57.736 119.964  0.00  0.00     0.028 C 
ATOM     12  C   LIG d   1       0.679  57.702 121.412  0.00  0.00     0.006 C 
ENDBRANCH   8  11
ENDBRANCH   7   8
ENDBRANCH   1   7
BRANCH   6  13
ATOM     13  N   LIG d   1      -4.155  58.250 120.103  0.00  0.00    -0.311 N 
ATOM     14  C   LIG d   1      -4.121  56.965 119.754  0.00  0.00     0.210 C 
ATOM     15  C   LIG d   1      -5.306  56.494 118.905  0.00  0.00     0.109 C 
ATOM     16  O   LIG d   1      -3.238  56.163 120.093  0.00  0.00    -0.276 OA
ATOM     17  H   LIG d   1      -4.925  58.820 119.812  0.00  0.00     0.149 HD
ENDBRANCH   6  13
BRANCH   5  18
ATOM     18  N   LIG d   1      -4.216  58.570 123.141  0.00  0.00     0.381 N 
ATOM     19  H   LIG d   1      -5.206  58.696 123.204  0.00  0.00    -0.090 HD
ATOM     20  H   LIG d   1      -3.819  58.725 124.051  0.00  0.00    -0.090 HD
ATOM     21  H   LIG d   1      -4.009  57.645 122.834  0.00  0.00    -0.090 HD
ENDBRANCH   5  18
BRANCH   3  22
ATOM     22  C   LIG d   1      -1.224  62.280 122.662  0.00  0.00     0.382 C 
ATOM     23  O   LIG d   1       0.017  62.451 122.596  0.00  0.00    -0.241 OA
ATOM     24  O   LIG d   1      -1.925  63.102 123.282  0.00  0.00    -0.241 OA
ENDBRANCH   3  22
TORSDOF 7
ENDMDL
MODEL 9
REMARK VINA RESULT:      -4.4     11.228     13.621
REMARK  7 active torsions:
REMARK  status: ('A' for Active; 'I' for Inactive)
REMARK    1  A    between atoms: C_2  and  C_3 
REMARK    2  A    between atoms: C_3  and  O_6 
REMARK    3  A    between atoms: C_3  and  C_4 
REMARK    4  A    between atoms: C_7  and  O_6 
REMARK    5  A    between atoms: C_9  and  C_10 
REMARK    6  A    between atoms: N_15  and  C_14 
REMARK    7  A    between atoms: N_20  and  C_19 
REMARK       I    between atoms: C_22  and  N_20 
ROOT
ATOM      1  C   LIG d   1      -7.498  80.095 118.912  0.00  0.00     0.161 C 
ATOM      2  C   LIG d   1      -7.922  78.887 118.332  0.00  0.00     0.016 C 
ATOM      3  C   LIG d   1      -9.135  78.246 118.670  0.00  0.00     0.038 C 
ATOM      4  C   LIG d   1     -10.086  78.850 119.507  0.00  0.00     0.028 C 
ATOM      5  C   LIG d   1      -9.478  79.830 120.505  0.00  0.00    -0.047 C 
ATOM      6  C   LIG d   1      -8.573  80.825 119.744  0.00  0.00     0.091 C 
ENDROOT
BRANCH   1   7
ATOM      7  O   LIG d   1      -6.974  80.969 117.892  0.00  0.00    -0.368 OA
BRANCH   7   8
ATOM      8  C   LIG d   1      -5.540  81.175 117.904  0.00  0.00     0.119 C 
BRANCH   8   9
ATOM      9  C   LIG d   1      -4.895  79.977 117.180  0.00  0.00     0.028 C 
ATOM     10  C   LIG d   1      -3.769  79.331 118.004  0.00  0.00     0.006 C 
ENDBRANCH   8   9
BRANCH   8  11
ATOM     11  C   LIG d   1      -4.983  81.134 119.330  0.00  0.00     0.028 C 
ATOM     12  C   LIG d   1      -4.436  82.493 119.795  0.00  0.00     0.006 C 
ENDBRANCH   8  11
ENDBRANCH   7   8
ENDBRANCH   1   7
BRANCH   6  13
ATOM     13  N   LIG d   1      -7.873  81.766 120.656  0.00  0.00    -0.311 N 
ATOM     14  C   LIG d   1      -8.340  82.976 120.961  0.00  0.00     0.210 C 
ATOM     15  C   LIG d   1      -7.452  83.793 121.905  0.00  0.00     0.109 C 
ATOM     16  O   LIG d   1      -9.421  83.437 120.566  0.00  0.00    -0.276 OA
ATOM     17  H   LIG d   1      -7.003  81.461 121.047  0.00  0.00     0.149 HD
ENDBRANCH   6  13
BRANCH   5  18
ATOM     18  N   LIG d   1     -10.590  80.487 121.217  0.00  0.00     0.381 N 
ATOM     19  H   LIG d   1     -10.310  81.402 121.510  0.00  0.00    -0.090 HD
ATOM     20  H   LIG d   1     -10.815  79.950 122.036  0.00  0.00    -0.090 HD
ATOM     21  H   LIG d   1     -11.386  80.550 120.623  0.00  0.00    -0.090 HD
ENDBRANCH   5  18
BRANCH   3  22
ATOM     22  C   LIG d   1      -9.391  76.966 118.200  0.00  0.00     0.382 C 
ATOM     23  O   LIG d   1      -8.438  76.186 117.958  0.00  0.00    -0.241 OA
ATOM     24  O   LIG d   1     -10.559  76.598 117.973  0.00  0.00    -0.241 OA
ENDBRANCH   3  22
TORSDOF 7
ENDMDL
